27
t= 0.00000
C 3.326028 2.09962 1.673972
H 3.92445 1.46277 2.328371
H 3.99617 2.6448 1.00383
H 2.671629 1.46277 1.07555
C 2.5 3.05946 2.5
H 1.903 3.70751 1.842751
H 3.157249 3.70751 3.09706
O 1.658486 2.27233 3.341514
H 1.12353 2.88153 3.8764700
C 3.326028 2.09962 6.673972
H 3.92445 1.46277 7.328371
H 3.99617 2.6448 6.00383
H 2.671629 1.46277 6.07555
C 2.5 3.05946 7.5
H 1.903 3.70751 6.842751
H 3.157249 3.70751 8.09706
O 1.658486 2.27233 8.341514
H 1.12353 2.88153 8.87647
C 3.326028 7.09962 1.673972
H 3.92445 6.46277 2.328371
H 3.99617 7.6448 1.00383
H 2.671629 6.46277 1.07555
C 2.5 8.05946 2.5
H 1.903 8.70751 1.842751
H 3.157249 8.70751 3.09706
O 1.658486 7.27233 3.341514
H 1.12353 7.88153 3.876470
