27
t= 0.00000
C 3.33314613 2.1790899  1.64046808
H 3.42446166 1.20531516 2.12378644
H 4.32082987 2.62706535 1.51594702
H 2.86788981 2.06124604 0.65598573
C 2.45359941 3.06590046 2.51432133
H 1.77349664 3.62665031 1.88823433
H 3.0783355  3.72649876 3.09912954
O 1.72199739 2.23514778 3.38239603
H 1.13483415 2.78790937 3.87633773
C 3.33004903 2.13972571 6.65245294
H 3.40643958 1.17614247 7.15836967
H 4.32560196 2.56389991 6.50896719
H 2.85483901 2.00818604 5.67484386
C 2.47556271 3.06522524 7.51095635
H 1.81769369 3.64135152 6.87506922
H 3.11848498 3.71287507 8.09076231
O 1.71285134 2.2673791  8.38376934
H 1.14081788 2.84426197 8.86796722
C 3.36529585 7.17110632 1.67507715
H 3.97459715 6.55424277 2.33628021
H 4.02145554 7.76318044 1.03510729
H 2.7293065  6.54464218 1.04903261
C 2.47771917 8.0686766  2.52706611
H 1.84500362 8.66424076 1.88376726
H 3.09468265 8.69504304 3.15613183
O 1.67778956 7.23827079 3.33102508
H 1.13755608 7.798706   3.86819981