2
This is a comment and the time is 0.0000
H    0.00000    0.00000   -0.36700
H    0.00000    0.00000    0.36700
2
This is a comment and the time is 0.0403
H    0.00002    0.00030   -0.36792
H    0.00005    0.00034    0.36839
2
This is a comment and the time is 0.0805
H    0.00004    0.00061   -0.37075
H    0.00010    0.00069    0.37169
2
This is a comment and the time is 0.1208
H    0.00006    0.00091   -0.37383
H    0.00016    0.00103    0.37524
2
This is a comment and the time is 0.1611
H    0.00008    0.00121   -0.37464
H    0.00021    0.00138    0.37651
2
This is a comment and the time is 0.2014
H    0.00010    0.00152   -0.37146
H    0.00026    0.00172    0.37380
2
This is a comment and the time is 0.2416
H    0.00012    0.00182   -0.36504
H    0.00031    0.00206    0.36784
2
This is a comment and the time is 0.2819
H    0.00014    0.00213   -0.35898
H    0.00036    0.00240    0.36226
2
This is a comment and the time is 0.3222
H    0.00016    0.00243   -0.35804
H    0.00041    0.00275    0.36178
2
This is a comment and the time is 0.3625
H    0.00017    0.00273   -0.36478
H    0.00047    0.00309    0.36899
2
This is a comment and the time is 0.4027
H    0.00019    0.00302   -0.37674
H    0.00053    0.00344    0.38141
2
This is a comment and the time is 0.4430
H    0.00020    0.00332   -0.38634
H    0.00058    0.00379    0.39148
2
This is a comment and the time is 0.4833
H    0.00022    0.00363   -0.38489
H    0.00063    0.00413    0.39050
2
This is a comment and the time is 0.5236
H    0.00025    0.00394   -0.36899
H    0.00067    0.00447    0.37507
2
This is a comment and the time is 0.5638
H    0.00028    0.00426   -0.34530
H    0.00071    0.00479    0.35185
2
This is a comment and the time is 0.6041
H    0.00031    0.00457   -0.32927
H    0.00076    0.00513    0.33628
2
This is a comment and the time is 0.6444
H    0.00032    0.00487   -0.33639
H    0.00082    0.00548    0.34387
2
This is a comment and the time is 0.6846
H    0.00032    0.00514   -0.36999
H    0.00089    0.00586    0.37794
2
This is a comment and the time is 0.7249
H    0.00030    0.00540   -0.41383
H    0.00098    0.00624    0.42224
2
This is a comment and the time is 0.7652
H    0.00031    0.00569   -0.43713
H    0.00105    0.00660    0.44601
2
This is a comment and the time is 0.8055
H    0.00035    0.00602   -0.41321
H    0.00108    0.00692    0.42257
2
This is a comment and the time is 0.8457
H    0.00043    0.00640   -0.34214
H    0.00106    0.00718    0.35196
2
This is a comment and the time is 0.8860
H    0.00052    0.00679   -0.26122
H    0.00105    0.00744    0.27150
2
This is a comment and the time is 0.9263
H    0.00056    0.00712   -0.23027
H    0.00108    0.00776    0.24102
2
This is a comment and the time is 0.9666
H    0.00051    0.00733   -0.29328
H    0.00120    0.00819    0.30450
