2
This is a comment and the time is 0.0000
H    0.00000    0.00000   -0.36700
H    0.00000    0.00000    0.36700
2
This is a comment and the time is 0.0403
H    0.00022    0.00033   -0.36812
H    0.00000    0.00015    0.36856
2
This is a comment and the time is 0.0805
H    0.00044    0.00066   -0.37108
H    0.00001    0.00031    0.37195
2
This is a comment and the time is 0.1208
H    0.00067    0.00099   -0.37410
H    0.00001    0.00046    0.37541
2
This is a comment and the time is 0.1611
H    0.00088    0.00132   -0.37464
H    0.00002    0.00062    0.37638
2
This is a comment and the time is 0.2014
H    0.00110    0.00164   -0.37113
H    0.00003    0.00077    0.37331
2
This is a comment and the time is 0.2416
H    0.00131    0.00197   -0.36457
H    0.00004    0.00094    0.36718
2
This is a comment and the time is 0.2819
H    0.00153    0.00229   -0.35875
H    0.00005    0.00110    0.36180
2
This is a comment and the time is 0.3222
H    0.00175    0.00262   -0.35841
H    0.00005    0.00125    0.36189
2
This is a comment and the time is 0.3625
H    0.00199    0.00297   -0.36579
H    0.00004    0.00139    0.36971
2
This is a comment and the time is 0.4027
H    0.00224    0.00332   -0.37794
H    0.00001    0.00152    0.38230
2
This is a comment and the time is 0.4430
H    0.00249    0.00367   -0.38699
H   -0.00001    0.00165    0.39178
2
This is a comment and the time is 0.4833
H    0.00269    0.00399   -0.38439
H    0.00001    0.00182    0.38961
2
This is a comment and the time is 0.5236
H    0.00285    0.00427   -0.36741
H    0.00008    0.00202    0.37308
2
This is a comment and the time is 0.5638
H    0.00299    0.00453   -0.34363
H    0.00017    0.00225    0.34973
2
This is a comment and the time is 0.6041
H    0.00316    0.00482   -0.32896
H    0.00022    0.00244    0.33549
2
This is a comment and the time is 0.6444
H    0.00344    0.00519   -0.33839
H    0.00017    0.00255    0.34536
2
This is a comment and the time is 0.6846
H    0.00383    0.00567   -0.37384
H    0.00000    0.00256    0.38125
2
This is a comment and the time is 0.7249
H    0.00426    0.00617   -0.41741
H   -0.00020    0.00254    0.42525
2
This is a comment and the time is 0.7652
H    0.00457    0.00657   -0.43773
H   -0.00029    0.00263    0.44600
2
This is a comment and the time is 0.8055
H    0.00462    0.00676   -0.40940
H   -0.00011    0.00292    0.41811
2
This is a comment and the time is 0.8457
H    0.00441    0.00674   -0.33542
H    0.00032    0.00342    0.34457
2
This is a comment and the time is 0.8860
H    0.00418    0.00670   -0.25601
H    0.00079    0.00395    0.26559
2
This is a comment and the time is 0.9263
H    0.00429    0.00694   -0.23154
H    0.00090    0.00419    0.24156
2
This is a comment and the time is 0.9666
H    0.00506    0.00772   -0.30285
H    0.00035    0.00390    0.31331
