12
This is a comment and the time is 0.0000
O    1.66436    1.67112    1.66671
H    0.67931    1.67241    1.67661
H    1.67566    1.34353    0.72980
O    1.66240    1.66647    4.99698
H    0.67954    1.67146    5.00515
H    1.67477    1.34818    4.06635
H    0.00000    0.00000    0.50000
H    0.00000    0.00000    1.50000
H    2.50000    3.00000    0.00000
C    2.30000    3.10000    0.20000
C    2.30000    3.30000    0.20000
H    2.10000    3.30000    0.20000
12
This is a comment and the time is 0.0010
O    1.66440    1.67115    1.66678
H    0.67941    1.67248    1.67676
H    1.67578    1.34360    0.72997
O    1.66283    1.66733    4.99378
H    0.67962    1.67158    5.00524
H    1.67486    1.34827    4.06648
H    0.00007    0.00004    0.50009
H    0.00003    0.00007    1.50003
H    2.50076    2.99964   -0.00064
C    2.30003    3.09995    0.20012
C    2.30013    3.30017    0.20005
H    2.09879    3.30034    0.20007
