2
This is a comment and the time is 0.0000
H    0.00000    0.00000   -0.36700
H    0.00000    0.00000    0.36700
2
This is a comment and the time is 0.0403
H    0.00014    0.00024   -0.36790
H    0.00023    0.00022    0.36843
2
This is a comment and the time is 0.0805
H    0.00028    0.00049   -0.36978
H    0.00046    0.00045    0.37085
2
This is a comment and the time is 0.1208
H    0.00042    0.00073   -0.37057
H    0.00069    0.00067    0.37217
2
This is a comment and the time is 0.1611
H    0.00056    0.00097   -0.36986
H    0.00092    0.00089    0.37199
2
This is a comment and the time is 0.2014
H    0.00070    0.00122   -0.36859
H    0.00115    0.00111    0.37126
2
This is a comment and the time is 0.2416
H    0.00084    0.00146   -0.36778
H    0.00138    0.00134    0.37098
2
This is a comment and the time is 0.2819
H    0.00098    0.00170   -0.36767
H    0.00161    0.00156    0.37140
2
This is a comment and the time is 0.3222
H    0.00112    0.00194   -0.36787
H    0.00184    0.00178    0.37213
2
This is a comment and the time is 0.3625
H    0.00126    0.00219   -0.36788
H    0.00207    0.00200    0.37268
2
This is a comment and the time is 0.4027
H    0.00140    0.00243   -0.36756
H    0.00230    0.00223    0.37289
2
This is a comment and the time is 0.4430
H    0.00154    0.00267   -0.36709
H    0.00253    0.00245    0.37295
2
This is a comment and the time is 0.4833
H    0.00169    0.00292   -0.36668
H    0.00276    0.00267    0.37307
2
This is a comment and the time is 0.5236
H    0.00183    0.00316   -0.36643
H    0.00299    0.00290    0.37335
2
This is a comment and the time is 0.5638
H    0.00197    0.00340   -0.36625
H    0.00322    0.00312    0.37371
2
This is a comment and the time is 0.6041
H    0.00211    0.00365   -0.36606
H    0.00345    0.00334    0.37405
2
This is a comment and the time is 0.6444
H    0.00225    0.00389   -0.36579
H    0.00368    0.00356    0.37432
2
This is a comment and the time is 0.6846
H    0.00239    0.00413   -0.36548
H    0.00391    0.00379    0.37454
2
This is a comment and the time is 0.7249
H    0.00253    0.00438   -0.36518
H    0.00414    0.00401    0.37477
2
This is a comment and the time is 0.7652
H    0.00267    0.00462   -0.36491
H    0.00437    0.00423    0.37503
2
This is a comment and the time is 0.8055
H    0.00281    0.00486   -0.36466
H    0.00461    0.00445    0.37532
2
This is a comment and the time is 0.8457
H    0.00295    0.00510   -0.36441
H    0.00484    0.00468    0.37560
2
This is a comment and the time is 0.8860
H    0.00309    0.00535   -0.36415
H    0.00507    0.00490    0.37587
2
This is a comment and the time is 0.9263
H    0.00323    0.00559   -0.36388
H    0.00530    0.00512    0.37613
2
This is a comment and the time is 0.9666
H    0.00337    0.00583   -0.36360
H    0.00553    0.00535    0.37639
