3
This is a comment and the time is 0.0089
O    1.93685    2.31893    1.72051
H    1.78898    3.24083    1.51217
H    2.30430    1.98043    0.90283
3
This is a comment and the time is 0.0178
O    1.93802    2.31909    1.71622
H    1.78793    3.24095    1.51481
H    2.30432    1.98030    0.90462
3
This is a comment and the time is 0.0267
O    1.93856    2.31931    1.71300
H    1.78633    3.24113    1.51832
H    2.30553    1.98004    0.90446
3
This is a comment and the time is 0.0356
O    1.93833    2.31956    1.71170
H    1.78425    3.24139    1.52223
H    2.30798    1.97967    0.90199
3
This is a comment and the time is 0.0445
O    1.93800    2.31977    1.71115
H    1.78175    3.24176    1.52629
H    2.31096    1.97924    0.89862
3
This is a comment and the time is 0.0534
O    1.93823    2.31987    1.71009
H    1.77888    3.24223    1.53027
H    2.31374    1.97880    0.89585
3
This is a comment and the time is 0.0623
O    1.93925    2.31984    1.70828
H    1.77577    3.24279    1.53387
H    2.31599    1.97841    0.89419
3
This is a comment and the time is 0.0712
O    1.94081    2.31968    1.70645
H    1.77259    3.24344    1.53674
H    2.31775    1.97806    0.89329
3
This is a comment and the time is 0.0801
O    1.94258    2.31939    1.70539
H    1.76953    3.24415    1.53864
H    2.31919    1.97779    0.89258
3
This is a comment and the time is 0.0890
O    1.94434    2.31901    1.70538
H    1.76676    3.24488    1.53949
H    2.32034    1.97758    0.89188
3
This is a comment and the time is 0.0979
O    1.94605    2.31858    1.70612
H    1.76444    3.24558    1.53940
H    2.32110    1.97745    0.89139
3
This is a comment and the time is 0.1068
O    1.94767    2.31814    1.70713
H    1.76271    3.24620    1.53855
H    2.32135    1.97740    0.89136
3
This is a comment and the time is 0.1157
O    1.94910    2.31776    1.70812
H    1.76168    3.24669    1.53720
H    2.32110    1.97743    0.89186
3
This is a comment and the time is 0.1246
O    1.95013    2.31748    1.70904
H    1.76143    3.24702    1.53558
H    2.32047    1.97752    0.89271
3
This is a comment and the time is 0.1335
O    1.95058    2.31734    1.70990
H    1.76200    3.24716    1.53389
H    2.31959    1.97766    0.89366
3
This is a comment and the time is 0.1424
O    1.95035    2.31736    1.71070
H    1.76337    3.24711    1.53233
H    2.31860    1.97784    0.89457
3
This is a comment and the time is 0.1513
O    1.94947    2.31755    1.71133
H    1.76546    3.24687    1.53103
H    2.31754    1.97803    0.89538
3
This is a comment and the time is 0.1602
O    1.94803    2.31790    1.71170
H    1.76812    3.24646    1.53006
H    2.31647    1.97824    0.89613
3
This is a comment and the time is 0.1691
O    1.94618    2.31836    1.71178
H    1.77119    3.24592    1.52941
H    2.31539    1.97845    0.89683
3
This is a comment and the time is 0.1780
O    1.94408    2.31892    1.71166
H    1.77449    3.24530    1.52903
H    2.31434    1.97865    0.89748
3
This is a comment and the time is 0.1869
O    1.94188    2.31950    1.71143
H    1.77782    3.24466    1.52882
H    2.31335    1.97885    0.89806
3
This is a comment and the time is 0.1958
O    1.93974    2.32007    1.71120
H    1.78103    3.24404    1.52866
H    2.31243    1.97904    0.89858
3
This is a comment and the time is 0.2047
O    1.93782    2.32058    1.71103
H    1.78395    3.24351    1.52848
H    2.31158    1.97921    0.89907
3
This is a comment and the time is 0.2136
O    1.93623    2.32099    1.71097
H    1.78646    3.24309    1.52820
H    2.31080    1.97936    0.89955
3
This is a comment and the time is 0.2225
O    1.93505    2.32128    1.71104
H    1.78847    3.24281    1.52780
H    2.31012    1.97948    0.90003
3
This is a comment and the time is 0.2314
O    1.93432    2.32143    1.71123
H    1.78992    3.24271    1.52728
H    2.30955    1.97958    0.90049
3
This is a comment and the time is 0.2403
O    1.93404    2.32144    1.71153
H    1.79076    3.24277    1.52670
H    2.30913    1.97964    0.90092
3
This is a comment and the time is 0.2492
O    1.93419    2.32133    1.71189
H    1.79101    3.24300    1.52613
H    2.30888    1.97966    0.90126
3
This is a comment and the time is 0.2581
O    1.93470    2.32112    1.71227
H    1.79068    3.24338    1.52567
H    2.30884    1.97964    0.90148
3
This is a comment and the time is 0.2670
O    1.93551    2.32084    1.71259
H    1.78982    3.24387    1.52543
H    2.30904    1.97956    0.90154
3
This is a comment and the time is 0.2759
O    1.93653    2.32051    1.71279
H    1.78851    3.24447    1.52549
H    2.30947    1.97944    0.90142
3
This is a comment and the time is 0.2848
O    1.93766    2.32016    1.71282
H    1.78685    3.24512    1.52593
H    2.31015    1.97928    0.90110
3
This is a comment and the time is 0.2937
O    1.93881    2.31983    1.71265
H    1.78494    3.24579    1.52676
H    2.31105    1.97907    0.90058
3
This is a comment and the time is 0.3026
O    1.93990    2.31954    1.71228
H    1.78292    3.24646    1.52797
H    2.31214    1.97883    0.89988
3
This is a comment and the time is 0.3115
O    1.94086    2.31930    1.71172
H    1.78089    3.24710    1.52950
H    2.31335    1.97858    0.89904
3
This is a comment and the time is 0.3204
O    1.94164    2.31912    1.71103
H    1.77900    3.24769    1.53126
H    2.31461    1.97831    0.89811
3
This is a comment and the time is 0.3293
O    1.94221    2.31899    1.71026
H    1.77735    3.24821    1.53311
H    2.31584    1.97806    0.89718
3
This is a comment and the time is 0.3382
O    1.94255    2.31893    1.70947
H    1.77603    3.24864    1.53490
H    2.31696    1.97783    0.89632
3
This is a comment and the time is 0.3471
O    1.94268    2.31892    1.70874
H    1.77512    3.24899    1.53649
H    2.31789    1.97763    0.89559
3
This is a comment and the time is 0.3560
O    1.94261    2.31894    1.70815
H    1.77467    3.24926    1.53776
H    2.31856    1.97748    0.89506
3
This is a comment and the time is 0.3649
O    1.94235    2.31900    1.70773
H    1.77471    3.24943    1.53860
H    2.31893    1.97739    0.89477
3
This is a comment and the time is 0.3738
O    1.94192    2.31908    1.70754
H    1.77524    3.24953    1.53895
H    2.31896    1.97736    0.89476
3
This is a comment and the time is 0.3827
O    1.94136    2.31917    1.70757
H    1.77623    3.24955    1.53879
H    2.31868    1.97738    0.89502
3
This is a comment and the time is 0.3916
O    1.94068    2.31928    1.70782
H    1.77766    3.24950    1.53817
H    2.31808    1.97746    0.89554
3
This is a comment and the time is 0.4005
O    1.93989    2.31939    1.70826
H    1.77944    3.24940    1.53713
H    2.31724    1.97759    0.89627
3
This is a comment and the time is 0.4094
O    1.93902    2.31951    1.70884
H    1.78150    3.24926    1.53579
H    2.31619    1.97775    0.89717
3
This is a comment and the time is 0.4183
O    1.93807    2.31965    1.70949
H    1.78376    3.24908    1.53428
H    2.31502    1.97794    0.89818
3
This is a comment and the time is 0.4272
O    1.93707    2.31979    1.71016
H    1.78612    3.24888    1.53272
H    2.31381    1.97813    0.89921
3
This is a comment and the time is 0.4361
O    1.93604    2.31996    1.71078
H    1.78848    3.24867    1.53124
H    2.31263    1.97832    0.90021
3
This is a comment and the time is 0.4450
O    1.93499    2.32013    1.71129
H    1.79076    3.24846    1.52995
H    2.31154    1.97850    0.90112
3
This is a comment and the time is 0.4539
O    1.93397    2.32032    1.71167
H    1.79286    3.24827    1.52895
H    2.31061    1.97864    0.90188
3
This is a comment and the time is 0.4628
O    1.93299    2.32050    1.71189
H    1.79472    3.24811    1.52829
H    2.30988    1.97875    0.90246
3
This is a comment and the time is 0.4716
O    1.93209    2.32069    1.71194
H    1.79627    3.24801    1.52799
H    2.30937    1.97881    0.90285
3
This is a comment and the time is 0.4805
O    1.93132    2.32085    1.71184
H    1.79747    3.24796    1.52804
H    2.30909    1.97883    0.90304
3
This is a comment and the time is 0.4894
O    1.93069    2.32099    1.71160
H    1.79830    3.24799    1.52841
H    2.30903    1.97881    0.90305
3
This is a comment and the time is 0.4983
O    1.93025    2.32108    1.71126
H    1.79875    3.24811    1.52904
H    2.30918    1.97874    0.90291
3
This is a comment and the time is 0.5072
O    1.93000    2.32112    1.71086
H    1.79882    3.24831    1.52986
H    2.30950    1.97864    0.90263
3
This is a comment and the time is 0.5161
O    1.92996    2.32111    1.71044
H    1.79855    3.24860    1.53079
H    2.30996    1.97851    0.90225
3
This is a comment and the time is 0.5250
O    1.93012    2.32103    1.71003
H    1.79797    3.24897    1.53178
H    2.31052    1.97835    0.90182
3
This is a comment and the time is 0.5339
O    1.93046    2.32090    1.70965
H    1.79715    3.24941    1.53276
H    2.31116    1.97818    0.90136
3
This is a comment and the time is 0.5428
O    1.93095    2.32072    1.70933
H    1.79614    3.24992    1.53368
H    2.31182    1.97799    0.90089
3
This is a comment and the time is 0.5517
O    1.93154    2.32050    1.70908
H    1.79503    3.25046    1.53451
H    2.31248    1.97781    0.90046
3
This is a comment and the time is 0.5606
O    1.93220    2.32026    1.70888
H    1.79389    3.25103    1.53524
H    2.31311    1.97763    0.90006
3
This is a comment and the time is 0.5695
O    1.93286    2.32001    1.70875
H    1.79280    3.25159    1.53587
H    2.31368    1.97746    0.89971
3
This is a comment and the time is 0.5784
O    1.93346    2.31977    1.70865
H    1.79184    3.25212    1.53640
H    2.31418    1.97730    0.89942
3
This is a comment and the time is 0.5873
O    1.93395    2.31956    1.70857
H    1.79109    3.25261    1.53684
H    2.31460    1.97717    0.89920
3
This is a comment and the time is 0.5962
O    1.93428    2.31939    1.70851
H    1.79059    3.25303    1.53720
H    2.31491    1.97705    0.89904
3
This is a comment and the time is 0.6051
O    1.93442    2.31928    1.70844
H    1.79039    3.25337    1.53749
H    2.31512    1.97696    0.89895
3
This is a comment and the time is 0.6140
O    1.93434    2.31924    1.70837
H    1.79052    3.25363    1.53772
H    2.31521    1.97689    0.89894
3
This is a comment and the time is 0.6229
O    1.93404    2.31925    1.70829
H    1.79100    3.25380    1.53788
H    2.31518    1.97685    0.89899
3
This is a comment and the time is 0.6318
O    1.93353    2.31933    1.70821
H    1.79180    3.25388    1.53797
H    2.31503    1.97683    0.89913
3
This is a comment and the time is 0.6407
O    1.93283    2.31946    1.70813
H    1.79291    3.25388    1.53798
H    2.31477    1.97684    0.89934
3
This is a comment and the time is 0.6496
O    1.93197    2.31963    1.70807
H    1.79428    3.25382    1.53789
H    2.31440    1.97687    0.89963
3
This is a comment and the time is 0.6585
O    1.93100    2.31983    1.70804
H    1.79587    3.25371    1.53770
H    2.31394    1.97692    0.89999
3
This is a comment and the time is 0.6674
O    1.92995    2.32005    1.70805
H    1.79761    3.25356    1.53740
H    2.31339    1.97699    0.90042
3
This is a comment and the time is 0.6763
O    1.92888    2.32028    1.70811
H    1.79944    3.25340    1.53700
H    2.31278    1.97706    0.90090
3
This is a comment and the time is 0.6852
O    1.92781    2.32049    1.70820
H    1.80130    3.25324    1.53653
H    2.31214    1.97715    0.90142
3
This is a comment and the time is 0.6941
O    1.92679    2.32069    1.70833
H    1.80312    3.25309    1.53600
H    2.31148    1.97724    0.90196
3
This is a comment and the time is 0.7030
O    1.92584    2.32087    1.70849
H    1.80485    3.25298    1.53544
H    2.31084    1.97732    0.90250
3
This is a comment and the time is 0.7119
O    1.92500    2.32101    1.70865
H    1.80644    3.25291    1.53491
H    2.31025    1.97739    0.90300
3
This is a comment and the time is 0.7208
O    1.92426    2.32111    1.70881
H    1.80783    3.25289    1.53444
H    2.30974    1.97744    0.90346
3
This is a comment and the time is 0.7297
O    1.92365    2.32118    1.70893
H    1.80901    3.25293    1.53407
H    2.30932    1.97747    0.90385
3
This is a comment and the time is 0.7386
O    1.92316    2.32122    1.70901
H    1.80995    3.25303    1.53384
H    2.30902    1.97748    0.90414
3
This is a comment and the time is 0.7475
O    1.92280    2.32123    1.70903
H    1.81063    3.25318    1.53377
H    2.30884    1.97746    0.90432
3
This is a comment and the time is 0.7564
O    1.92255    2.32120    1.70898
H    1.81106    3.25340    1.53389
H    2.30880    1.97741    0.90440
3
This is a comment and the time is 0.7653
O    1.92241    2.32115    1.70886
H    1.81125    3.25367    1.53419
H    2.30890    1.97733    0.90436
3
This is a comment and the time is 0.7742
O    1.92237    2.32108    1.70867
H    1.81122    3.25399    1.53467
H    2.30911    1.97722    0.90421
3
This is a comment and the time is 0.7831
O    1.92241    2.32099    1.70841
H    1.81101    3.25435    1.53530
H    2.30943    1.97709    0.90397
3
This is a comment and the time is 0.7920
O    1.92251    2.32088    1.70811
H    1.81065    3.25474    1.53605
H    2.30984    1.97695    0.90366
3
This is a comment and the time is 0.8009
O    1.92266    2.32077    1.70778
H    1.81019    3.25516    1.53689
H    2.31030    1.97679    0.90330
3
This is a comment and the time is 0.8098
O    1.92283    2.32064    1.70743
H    1.80968    3.25558    1.53776
H    2.31079    1.97662    0.90292
3
This is a comment and the time is 0.8187
O    1.92300    2.32052    1.70709
H    1.80916    3.25601    1.53861
H    2.31127    1.97646    0.90254
3
This is a comment and the time is 0.8276
O    1.92316    2.32040    1.70677
H    1.80870    3.25643    1.53942
H    2.31173    1.97630    0.90219
3
This is a comment and the time is 0.8365
O    1.92329    2.32028    1.70649
H    1.80832    3.25683    1.54014
H    2.31212    1.97616    0.90189
3
This is a comment and the time is 0.8454
O    1.92335    2.32018    1.70626
H    1.80809    3.25720    1.54074
H    2.31244    1.97603    0.90167
3
This is a comment and the time is 0.8543
O    1.92334    2.32010    1.70608
H    1.80802    3.25754    1.54121
H    2.31267    1.97592    0.90152
3
This is a comment and the time is 0.8632
O    1.92324    2.32003    1.70596
H    1.80815    3.25783    1.54153
H    2.31278    1.97583    0.90146
3
This is a comment and the time is 0.8721
O    1.92304    2.32000    1.70588
H    1.80849    3.25807    1.54170
H    2.31280    1.97577    0.90150
3
This is a comment and the time is 0.8810
O    1.92272    2.31999    1.70586
H    1.80904    3.25826    1.54174
H    2.31270    1.97573    0.90163
3
This is a comment and the time is 0.8899
O    1.92230    2.32002    1.70587
H    1.80980    3.25839    1.54166
H    2.31251    1.97571    0.90183
3
This is a comment and the time is 0.8988
O    1.92177    2.32007    1.70591
H    1.81076    3.25847    1.54149
H    2.31223    1.97571    0.90211
3
This is a comment and the time is 0.9077
O    1.92114    2.32016    1.70596
H    1.81189    3.25851    1.54125
H    2.31187    1.97573    0.90244
3
This is a comment and the time is 0.9166
O    1.92043    2.32028    1.70602
H    1.81315    3.25850    1.54096
H    2.31147    1.97576    0.90281
3
This is a comment and the time is 0.9255
O    1.91964    2.32042    1.70607
H    1.81453    3.25846    1.54065
H    2.31103    1.97580    0.90321
3
This is a comment and the time is 0.9344
O    1.91881    2.32058    1.70611
H    1.81596    3.25840    1.54034
H    2.31057    1.97584    0.90361
3
This is a comment and the time is 0.9433
O    1.91795    2.32075    1.70614
H    1.81743    3.25833    1.54006
H    2.31011    1.97589    0.90401
3
This is a comment and the time is 0.9522
O    1.91709    2.32092    1.70614
H    1.81887    3.25825    1.53982
H    2.30967    1.97593    0.90439
3
This is a comment and the time is 0.9611
O    1.91625    2.32109    1.70613
H    1.82027    3.25819    1.53963
H    2.30926    1.97596    0.90474
3
This is a comment and the time is 0.9700
O    1.91545    2.32125    1.70609
H    1.82159    3.25814    1.53949
H    2.30889    1.97599    0.90505
3
This is a comment and the time is 0.9789
O    1.91470    2.32139    1.70603
H    1.82279    3.25813    1.53943
H    2.30858    1.97600    0.90531
3
This is a comment and the time is 0.9878
O    1.91403    2.32151    1.70595
H    1.82387    3.25815    1.53943
H    2.30832    1.97600    0.90553
3
This is a comment and the time is 0.9967
O    1.91345    2.32160    1.70585
H    1.82479    3.25822    1.53949
H    2.30813    1.97598    0.90570
3
This is a comment and the time is 1.0056
O    1.91295    2.32166    1.70574
H    1.82556    3.25834    1.53963
H    2.30800    1.97595    0.90582
3
This is a comment and the time is 1.0145
O    1.91255    2.32168    1.70561
H    1.82617    3.25850    1.53983
H    2.30794    1.97590    0.90589
3
This is a comment and the time is 1.0234
O    1.91224    2.32168    1.70548
H    1.82663    3.25872    1.54009
H    2.30794    1.97583    0.90591
3
This is a comment and the time is 1.0323
O    1.91201    2.32164    1.70533
H    1.82695    3.25898    1.54040
H    2.30799    1.97575    0.90588
3
This is a comment and the time is 1.0412
O    1.91186    2.32157    1.70517
H    1.82714    3.25928    1.54077
H    2.30810    1.97566    0.90581
3
This is a comment and the time is 1.0501
O    1.91177    2.32149    1.70500
H    1.82722    3.25961    1.54119
H    2.30826    1.97555    0.90570
3
This is a comment and the time is 1.0590
O    1.91173    2.32138    1.70482
H    1.82722    3.25997    1.54164
H    2.30845    1.97544    0.90557
3
This is a comment and the time is 1.0679
O    1.91171    2.32127    1.70463
H    1.82716    3.26034    1.54213
H    2.30866    1.97532    0.90541
3
This is a comment and the time is 1.0768
O    1.91171    2.32115    1.70443
H    1.82708    3.26072    1.54263
H    2.30889    1.97519    0.90524
3
This is a comment and the time is 1.0857
O    1.91170    2.32104    1.70423
H    1.82701    3.26110    1.54315
H    2.30912    1.97507    0.90507
3
This is a comment and the time is 1.0946
O    1.91167    2.32094    1.70403
H    1.82697    3.26146    1.54366
H    2.30934    1.97495    0.90491
3
This is a comment and the time is 1.1035
O    1.91160    2.32085    1.70382
H    1.82699    3.26180    1.54415
H    2.30954    1.97484    0.90476
3
This is a comment and the time is 1.1124
O    1.91148    2.32078    1.70363
H    1.82709    3.26212    1.54461
H    2.30970    1.97473    0.90464
3
This is a comment and the time is 1.1213
O    1.91129    2.32073    1.70344
H    1.82730    3.26240    1.54502
H    2.30982    1.97464    0.90455
3
This is a comment and the time is 1.1302
O    1.91104    2.32071    1.70326
H    1.82764    3.26265    1.54538
H    2.30988    1.97455    0.90451
3
This is a comment and the time is 1.1391
O    1.91072    2.32071    1.70311
H    1.82810    3.26285    1.54566
H    2.30989    1.97449    0.90452
3
This is a comment and the time is 1.1480
O    1.91032    2.32074    1.70297
H    1.82869    3.26302    1.54588
H    2.30984    1.97443    0.90458
3
This is a comment and the time is 1.1569
O    1.90985    2.32079    1.70285
H    1.82942    3.26314    1.54602
H    2.30973    1.97440    0.90469
3
This is a comment and the time is 1.1658
O    1.90931    2.32087    1.70276
H    1.83027    3.26323    1.54609
H    2.30956    1.97437    0.90486
3
This is a comment and the time is 1.1747
O    1.90872    2.32097    1.70269
H    1.83123    3.26329    1.54609
H    2.30934    1.97436    0.90507
3
This is a comment and the time is 1.1836
O    1.90807    2.32108    1.70264
H    1.83229    3.26331    1.54602
H    2.30908    1.97436    0.90533
3
This is a comment and the time is 1.1925
O    1.90739    2.32120    1.70261
H    1.83342    3.26332    1.54591
H    2.30878    1.97437    0.90561
3
This is a comment and the time is 1.2014
O    1.90668    2.32134    1.70258
H    1.83460    3.26331    1.54577
H    2.30845    1.97439    0.90592
3
This is a comment and the time is 1.2103
O    1.90596    2.32148    1.70256
H    1.83580    3.26329    1.54561
H    2.30812    1.97441    0.90624
3
This is a comment and the time is 1.2192
O    1.90524    2.32162    1.70253
H    1.83701    3.26327    1.54546
H    2.30778    1.97442    0.90656
3
This is a comment and the time is 1.2281
O    1.90452    2.32176    1.70250
H    1.83819    3.26326    1.54532
H    2.30745    1.97444    0.90687
3
This is a comment and the time is 1.2370
O    1.90383    2.32189    1.70246
H    1.83933    3.26326    1.54521
H    2.30715    1.97445    0.90716
3
This is a comment and the time is 1.2459
O    1.90317    2.32201    1.70240
H    1.84041    3.26328    1.54515
H    2.30688    1.97445    0.90742
3
This is a comment and the time is 1.2548
O    1.90255    2.32211    1.70232
H    1.84141    3.26332    1.54515
H    2.30665    1.97444    0.90764
3
This is a comment and the time is 1.2637
O    1.90198    2.32220    1.70222
H    1.84232    3.26339    1.54521
H    2.30646    1.97442    0.90782
3
This is a comment and the time is 1.2726
O    1.90146    2.32227    1.70210
H    1.84313    3.26350    1.54534
H    2.30632    1.97439    0.90795
3
This is a comment and the time is 1.2815
O    1.90099    2.32233    1.70196
H    1.84384    3.26363    1.54554
H    2.30622    1.97435    0.90804
3
This is a comment and the time is 1.2904
O    1.90057    2.32236    1.70179
H    1.84445    3.26380    1.54579
H    2.30617    1.97429    0.90808
3
This is a comment and the time is 1.2993
O    1.90020    2.32237    1.70161
H    1.84497    3.26400    1.54611
H    2.30617    1.97422    0.90809
3
This is a comment and the time is 1.3082
O    1.89989    2.32236    1.70142
H    1.84540    3.26423    1.54648
H    2.30620    1.97414    0.90806
3
This is a comment and the time is 1.3171
O    1.89961    2.32233    1.70121
H    1.84576    3.26448    1.54688
H    2.30627    1.97405    0.90800
3
This is a comment and the time is 1.3260
O    1.89937    2.32228    1.70100
H    1.84605    3.26476    1.54731
H    2.30636    1.97396    0.90792
3
This is a comment and the time is 1.3349
O    1.89916    2.32223    1.70079
H    1.84630    3.26506    1.54776
H    2.30646    1.97386    0.90782
3
This is a comment and the time is 1.3438
O    1.89896    2.32216    1.70057
H    1.84653    3.26537    1.54822
H    2.30658    1.97375    0.90772
3
This is a comment and the time is 1.3527
O    1.89877    2.32209    1.70036
H    1.84675    3.26568    1.54867
H    2.30670    1.97365    0.90762
3
This is a comment and the time is 1.3616
O    1.89858    2.32202    1.70016
H    1.84697    3.26600    1.54911
H    2.30681    1.97355    0.90752
3
This is a comment and the time is 1.3705
O    1.89838    2.32196    1.69996
H    1.84722    3.26630    1.54953
H    2.30691    1.97345    0.90744
3
This is a comment and the time is 1.3794
O    1.89816    2.32190    1.69977
H    1.84751    3.26659    1.54992
H    2.30699    1.97335    0.90738
3
This is a comment and the time is 1.3883
O    1.89790    2.32186    1.69960
H    1.84785    3.26686    1.55028
H    2.30705    1.97327    0.90734
3
This is a comment and the time is 1.3972
O    1.89762    2.32183    1.69943
H    1.84826    3.26711    1.55060
H    2.30707    1.97319    0.90732
3
This is a comment and the time is 1.4061
O    1.89729    2.32182    1.69927
H    1.84874    3.26733    1.55089
H    2.30707    1.97311    0.90734
3
This is a comment and the time is 1.4149
O    1.89691    2.32183    1.69912
H    1.84930    3.26753    1.55113
H    2.30703    1.97305    0.90739
3
This is a comment and the time is 1.4238
O    1.89649    2.32186    1.69897
H    1.84993    3.26769    1.55134
H    2.30697    1.97300    0.90746
3
This is a comment and the time is 1.4327
O    1.89603    2.32192    1.69884
H    1.85064    3.26782    1.55150
H    2.30687    1.97296    0.90757
3
This is a comment and the time is 1.4416
O    1.89552    2.32199    1.69871
H    1.85142    3.26792    1.55164
H    2.30674    1.97293    0.90770
3
This is a comment and the time is 1.4505
O    1.89498    2.32208    1.69859
H    1.85227    3.26799    1.55174
H    2.30658    1.97290    0.90786
3
This is a comment and the time is 1.4594
O    1.89440    2.32219    1.69848
H    1.85318    3.26804    1.55181
H    2.30639    1.97288    0.90805
3
This is a comment and the time is 1.4683
O    1.89379    2.32231    1.69837
H    1.85414    3.26807    1.55185
H    2.30619    1.97287    0.90825
3
This is a comment and the time is 1.4772
O    1.89317    2.32245    1.69827
H    1.85513    3.26808    1.55188
H    2.30597    1.97286    0.90847
3
This is a comment and the time is 1.4861
O    1.89253    2.32259    1.69816
H    1.85614    3.26809    1.55190
H    2.30575    1.97286    0.90869
3
This is a comment and the time is 1.4950
O    1.89189    2.32273    1.69806
H    1.85716    3.26809    1.55191
H    2.30552    1.97285    0.90892
3
This is a comment and the time is 1.5039
O    1.89125    2.32287    1.69796
H    1.85817    3.26810    1.55192
H    2.30529    1.97285    0.90915
3
This is a comment and the time is 1.5128
O    1.89062    2.32300    1.69786
H    1.85917    3.26811    1.55194
H    2.30507    1.97284    0.90937
3
This is a comment and the time is 1.5217
O    1.89000    2.32313    1.69775
H    1.86014    3.26814    1.55198
H    2.30486    1.97283    0.90958
3
This is a comment and the time is 1.5306
O    1.88941    2.32324    1.69763
H    1.86107    3.26818    1.55205
H    2.30467    1.97282    0.90978
3
This is a comment and the time is 1.5395
O    1.88884    2.32335    1.69751
H    1.86195    3.26824    1.55214
H    2.30449    1.97280    0.90995
3
This is a comment and the time is 1.5484
O    1.88831    2.32343    1.69737
H    1.86279    3.26832    1.55226
H    2.30434    1.97277    0.91010
3
This is a comment and the time is 1.5573
O    1.88780    2.32350    1.69723
H    1.86356    3.26843    1.55243
H    2.30422    1.97273    0.91022
3
This is a comment and the time is 1.5662
O    1.88732    2.32356    1.69707
H    1.86428    3.26856    1.55264
H    2.30413    1.97268    0.91031
3
This is a comment and the time is 1.5751
O    1.88688    2.32360    1.69690
H    1.86494    3.26871    1.55288
H    2.30406    1.97263    0.91037
3
This is a comment and the time is 1.5840
O    1.88647    2.32362    1.69671
H    1.86554    3.26889    1.55317
H    2.30402    1.97257    0.91041
3
This is a comment and the time is 1.5929
O    1.88608    2.32363    1.69651
H    1.86609    3.26909    1.55350
H    2.30400    1.97250    0.91042
3
This is a comment and the time is 1.6018
O    1.88572    2.32363    1.69631
H    1.86660    3.26931    1.55386
H    2.30400    1.97242    0.91041
3
This is a comment and the time is 1.6107
O    1.88537    2.32362    1.69609
H    1.86707    3.26954    1.55424
H    2.30402    1.97234    0.91038
3
This is a comment and the time is 1.6196
O    1.88504    2.32360    1.69587
H    1.86752    3.26979    1.55465
H    2.30405    1.97225    0.91034
3
This is a comment and the time is 1.6285
O    1.88472    2.32358    1.69564
H    1.86794    3.27004    1.55507
H    2.30409    1.97216    0.91028
3
This is a comment and the time is 1.6374
O    1.88441    2.32355    1.69541
H    1.86836    3.27030    1.55550
H    2.30413    1.97207    0.91023
3
This is a comment and the time is 1.6463
O    1.88409    2.32353    1.69518
H    1.86878    3.27055    1.55592
H    2.30418    1.97199    0.91017
3
This is a comment and the time is 1.6552
O    1.88376    2.32350    1.69495
H    1.86922    3.27080    1.55634
H    2.30421    1.97190    0.91012
3
This is a comment and the time is 1.6641
O    1.88343    2.32349    1.69473
H    1.86968    3.27104    1.55673
H    2.30424    1.97181    0.91009
3
This is a comment and the time is 1.6730
O    1.88307    2.32348    1.69452
H    1.87016    3.27127    1.55711
H    2.30425    1.97174    0.91007
3
This is a comment and the time is 1.6819
O    1.88270    2.32349    1.69431
H    1.87069    3.27148    1.55745
H    2.30424    1.97166    0.91007
3
This is a comment and the time is 1.6908
O    1.88231    2.32350    1.69412
H    1.87125    3.27167    1.55777
H    2.30422    1.97159    0.91009
3
This is a comment and the time is 1.6997
O    1.88189    2.32353    1.69393
H    1.87186    3.27184    1.55805
H    2.30417    1.97153    0.91013
3
This is a comment and the time is 1.7086
O    1.88145    2.32358    1.69376
H    1.87252    3.27199    1.55830
H    2.30410    1.97148    0.91020
3
This is a comment and the time is 1.7175
O    1.88098    2.32364    1.69359
H    1.87322    3.27211    1.55851
H    2.30401    1.97143    0.91029
3
This is a comment and the time is 1.7264
O    1.88049    2.32372    1.69343
H    1.87396    3.27222    1.55869
H    2.30391    1.97140    0.91041
3
This is a comment and the time is 1.7353
O    1.87998    2.32381    1.69328
H    1.87475    3.27230    1.55885
H    2.30378    1.97136    0.91054
3
This is a comment and the time is 1.7442
O    1.87945    2.32392    1.69314
H    1.87557    3.27236    1.55898
H    2.30364    1.97133    0.91069
3
This is a comment and the time is 1.7531
O    1.87890    2.32403    1.69300
H    1.87642    3.27241    1.55909
H    2.30348    1.97131    0.91086
3
This is a comment and the time is 1.7620
O    1.87834    2.32416    1.69287
H    1.87729    3.27244    1.55919
H    2.30332    1.97129    0.91104
3
This is a comment and the time is 1.7709
O    1.87777    2.32430    1.69273
H    1.87818    3.27246    1.55928
H    2.30315    1.97128    0.91122
3
This is a comment and the time is 1.7798
O    1.87720    2.32443    1.69260
H    1.87907    3.27248    1.55937
H    2.30297    1.97126    0.91141
3
This is a comment and the time is 1.7887
O    1.87662    2.32458    1.69246
H    1.87997    3.27249    1.55945
H    2.30280    1.97125    0.91160
3
This is a comment and the time is 1.7976
O    1.87605    2.32472    1.69232
H    1.88086    3.27251    1.55955
H    2.30262    1.97123    0.91178
3
This is a comment and the time is 1.8065
O    1.87548    2.32485    1.69218
H    1.88174    3.27253    1.55966
H    2.30246    1.97121    0.91196
3
This is a comment and the time is 1.8154
O    1.87492    2.32498    1.69203
H    1.88261    3.27256    1.55978
H    2.30230    1.97119    0.91213
3
This is a comment and the time is 1.8243
O    1.87437    2.32511    1.69187
H    1.88345    3.27261    1.55992
H    2.30215    1.97117    0.91228
3
This is a comment and the time is 1.8332
O    1.87384    2.32522    1.69171
H    1.88426    3.27266    1.56009
H    2.30202    1.97114    0.91242
3
This is a comment and the time is 1.8421
O    1.87332    2.32532    1.69154
H    1.88505    3.27274    1.56028
H    2.30190    1.97110    0.91254
3
This is a comment and the time is 1.8510
O    1.87282    2.32541    1.69136
H    1.88580    3.27283    1.56049
H    2.30179    1.97106    0.91265
3
This is a comment and the time is 1.8599
O    1.87233    2.32549    1.69117
H    1.88652    3.27294    1.56074
H    2.30170    1.97102    0.91273
3
This is a comment and the time is 1.8688
O    1.87186    2.32555    1.69097
H    1.88722    3.27307    1.56101
H    2.30162    1.97096    0.91280
3
This is a comment and the time is 1.8777
O    1.87141    2.32560    1.69076
H    1.88788    3.27321    1.56131
H    2.30156    1.97091    0.91285
3
This is a comment and the time is 1.8866
O    1.87097    2.32565    1.69054
H    1.88851    3.27337    1.56164
H    2.30151    1.97084    0.91288
3
This is a comment and the time is 1.8955
O    1.87054    2.32568    1.69031
H    1.88913    3.27355    1.56199
H    2.30148    1.97078    0.91290
3
This is a comment and the time is 1.9044
O    1.87012    2.32570    1.69008
H    1.88972    3.27373    1.56235
H    2.30145    1.97071    0.91290
3
This is a comment and the time is 1.9133
O    1.86971    2.32572    1.68984
H    1.89029    3.27393    1.56274
H    2.30143    1.97063    0.91290
3
This is a comment and the time is 1.9222
O    1.86931    2.32573    1.68960
H    1.89086    3.27413    1.56314
H    2.30142    1.97056    0.91288
3
This is a comment and the time is 1.9311
O    1.86891    2.32575    1.68935
H    1.89141    3.27434    1.56354
H    2.30141    1.97048    0.91286
3
This is a comment and the time is 1.9400
O    1.86851    2.32576    1.68911
H    1.89197    3.27454    1.56395
H    2.30140    1.97040    0.91285
3
This is a comment and the time is 1.9489
O    1.86810    2.32578    1.68886
H    1.89253    3.27474    1.56435
H    2.30138    1.97033    0.91283
3
This is a comment and the time is 1.9578
O    1.86769    2.32580    1.68861
H    1.89311    3.27493    1.56474
H    2.30137    1.97025    0.91282
3
This is a comment and the time is 1.9667
O    1.86728    2.32583    1.68837
H    1.89369    3.27512    1.56512
H    2.30134    1.97018    0.91282
3
This is a comment and the time is 1.9756
O    1.86685    2.32586    1.68814
H    1.89429    3.27529    1.56549
H    2.30131    1.97011    0.91283
3
This is a comment and the time is 1.9845
O    1.86642    2.32591    1.68791
H    1.89492    3.27545    1.56583
H    2.30127    1.97005    0.91285
3
This is a comment and the time is 1.9934
O    1.86597    2.32597    1.68769
H    1.89556    3.27559    1.56615
H    2.30122    1.96999    0.91290
3
This is a comment and the time is 2.0023
O    1.86552    2.32604    1.68748
H    1.89623    3.27571    1.56645
H    2.30115    1.96994    0.91295
