2
This is a comment and the time is 0.0000
H    0.00000    0.00000   -0.36700
H    0.00000    0.00000    0.36700
2
This is a comment and the time is 0.0403
H    0.00012    0.00018   -0.36785
H    0.00022    0.00025    0.36841
2
This is a comment and the time is 0.0805
H    0.00025    0.00036   -0.36973
H    0.00044    0.00050    0.37085
2
This is a comment and the time is 0.1208
H    0.00037    0.00054   -0.37052
H    0.00066    0.00075    0.37221
2
This is a comment and the time is 0.1611
H    0.00050    0.00072   -0.36981
H    0.00088    0.00100    0.37207
2
This is a comment and the time is 0.2014
H    0.00062    0.00090   -0.36853
H    0.00110    0.00125    0.37135
2
This is a comment and the time is 0.2416
H    0.00075    0.00108   -0.36769
H    0.00132    0.00150    0.37107
2
This is a comment and the time is 0.2819
H    0.00087    0.00126   -0.36756
H    0.00154    0.00175    0.37151
2
This is a comment and the time is 0.3222
H    0.00100    0.00144   -0.36774
H    0.00176    0.00200    0.37225
2
This is a comment and the time is 0.3625
H    0.00112    0.00162   -0.36774
H    0.00198    0.00225    0.37282
2
This is a comment and the time is 0.4027
H    0.00125    0.00180   -0.36741
H    0.00220    0.00250    0.37305
2
This is a comment and the time is 0.4430
H    0.00137    0.00198   -0.36692
H    0.00242    0.00275    0.37312
2
This is a comment and the time is 0.4833
H    0.00150    0.00216   -0.36649
H    0.00264    0.00300    0.37326
2
This is a comment and the time is 0.5236
H    0.00162    0.00234   -0.36622
H    0.00286    0.00325    0.37355
2
This is a comment and the time is 0.5638
H    0.00175    0.00253   -0.36603
H    0.00308    0.00350    0.37393
2
This is a comment and the time is 0.6041
H    0.00187    0.00271   -0.36582
H    0.00330    0.00375    0.37428
2
This is a comment and the time is 0.6444
H    0.00200    0.00289   -0.36554
H    0.00352    0.00400    0.37457
2
This is a comment and the time is 0.6846
H    0.00212    0.00307   -0.36522
H    0.00374    0.00425    0.37481
2
This is a comment and the time is 0.7249
H    0.00225    0.00325   -0.36490
H    0.00396    0.00450    0.37505
2
This is a comment and the time is 0.7652
H    0.00237    0.00343   -0.36461
H    0.00418    0.00475    0.37533
2
This is a comment and the time is 0.8055
H    0.00250    0.00361   -0.36435
H    0.00440    0.00500    0.37563
2
This is a comment and the time is 0.8457
H    0.00262    0.00379   -0.36408
H    0.00462    0.00525    0.37593
2
This is a comment and the time is 0.8860
H    0.00275    0.00397   -0.36380
H    0.00484    0.00550    0.37622
2
This is a comment and the time is 0.9263
H    0.00287    0.00415   -0.36351
H    0.00506    0.00575    0.37649
2
This is a comment and the time is 0.9666
H    0.00300    0.00433   -0.36322
H    0.00527    0.00600    0.37676
