2
This is a comment and the time is 0.0000
H    0.00000    0.00000   -0.36700
H    0.00000    0.00000    0.36700
2
This is a comment and the time is 0.0403
H    0.00027    0.00026   -0.36805
H    0.00023    0.00020    0.36845
2
This is a comment and the time is 0.0805
H    0.00055    0.00053   -0.36968
H    0.00046    0.00040    0.37048
2
This is a comment and the time is 0.1208
H    0.00082    0.00079   -0.37077
H    0.00069    0.00060    0.37197
2
This is a comment and the time is 0.1611
H    0.00109    0.00105   -0.37077
H    0.00092    0.00080    0.37237
2
This is a comment and the time is 0.2014
H    0.00136    0.00132   -0.36988
H    0.00115    0.00100    0.37188
2
This is a comment and the time is 0.2416
H    0.00164    0.00158   -0.36872
H    0.00138    0.00120    0.37112
2
This is a comment and the time is 0.2819
H    0.00191    0.00184   -0.36786
H    0.00161    0.00140    0.37066
2
This is a comment and the time is 0.3222
H    0.00218    0.00211   -0.36758
H    0.00184    0.00160    0.37078
2
This is a comment and the time is 0.3625
H    0.00245    0.00237   -0.36776
H    0.00207    0.00179    0.37136
2
This is a comment and the time is 0.4027
H    0.00273    0.00263   -0.36806
H    0.00230    0.00199    0.37206
2
This is a comment and the time is 0.4430
H    0.00300    0.00290   -0.36820
H    0.00253    0.00219    0.37260
2
This is a comment and the time is 0.4833
H    0.00327    0.00316   -0.36803
H    0.00275    0.00239    0.37283
2
This is a comment and the time is 0.5236
H    0.00354    0.00342   -0.36762
H    0.00298    0.00259    0.37282
2
This is a comment and the time is 0.5638
H    0.00382    0.00369   -0.36715
H    0.00321    0.00279    0.37275
2
This is a comment and the time is 0.6041
H    0.00409    0.00395   -0.36679
H    0.00344    0.00299    0.37279
2
This is a comment and the time is 0.6444
H    0.00436    0.00421   -0.36658
H    0.00367    0.00319    0.37298
2
This is a comment and the time is 0.6846
H    0.00463    0.00448   -0.36649
H    0.00390    0.00339    0.37329
2
This is a comment and the time is 0.7249
H    0.00491    0.00474   -0.36643
H    0.00413    0.00359    0.37363
2
This is a comment and the time is 0.7652
H    0.00518    0.00500   -0.36631
H    0.00436    0.00379    0.37391
2
This is a comment and the time is 0.8055
H    0.00545    0.00527   -0.36612
H    0.00459    0.00399    0.37411
2
This is a comment and the time is 0.8457
H    0.00572    0.00553   -0.36585
H    0.00482    0.00419    0.37425
2
This is a comment and the time is 0.8860
H    0.00600    0.00579   -0.36558
H    0.00505    0.00439    0.37438
2
This is a comment and the time is 0.9263
H    0.00627    0.00606   -0.36534
H    0.00528    0.00459    0.37454
2
This is a comment and the time is 0.9666
H    0.00654    0.00632   -0.36514
H    0.00551    0.00479    0.37474
