2
This is a comment and the time is 0.0000
H    0.00000    0.00000   -0.36700
H    0.00000    0.00000    0.36700
2
This is a comment and the time is 0.0403
H    0.00034    0.00019   -0.36806
H    0.00025    0.00031    0.36825
2
This is a comment and the time is 0.0805
H    0.00067    0.00037   -0.36979
H    0.00050    0.00062    0.37016
2
This is a comment and the time is 0.1208
H    0.00101    0.00056   -0.37102
H    0.00075    0.00093    0.37158
2
This is a comment and the time is 0.1611
H    0.00135    0.00074   -0.37120
H    0.00100    0.00124    0.37195
2
This is a comment and the time is 0.2014
H    0.00168    0.00093   -0.37046
H    0.00125    0.00155    0.37140
2
This is a comment and the time is 0.2416
H    0.00202    0.00111   -0.36941
H    0.00150    0.00185    0.37054
2
This is a comment and the time is 0.2819
H    0.00235    0.00130   -0.36864
H    0.00175    0.00216    0.36995
2
This is a comment and the time is 0.3222
H    0.00269    0.00148   -0.36843
H    0.00200    0.00247    0.36993
2
This is a comment and the time is 0.3625
H    0.00302    0.00167   -0.36869
H    0.00225    0.00278    0.37037
2
This is a comment and the time is 0.4027
H    0.00336    0.00185   -0.36910
H    0.00250    0.00309    0.37097
2
This is a comment and the time is 0.4430
H    0.00370    0.00204   -0.36935
H    0.00275    0.00340    0.37141
2
This is a comment and the time is 0.4833
H    0.00403    0.00222   -0.36931
H    0.00300    0.00371    0.37155
2
This is a comment and the time is 0.5236
H    0.00437    0.00241   -0.36902
H    0.00324    0.00402    0.37145
2
This is a comment and the time is 0.5638
H    0.00471    0.00260   -0.36866
H    0.00350    0.00433    0.37128
2
This is a comment and the time is 0.6041
H    0.00504    0.00278   -0.36839
H    0.00375    0.00463    0.37120
2
This is a comment and the time is 0.6444
H    0.00538    0.00297   -0.36828
H    0.00399    0.00494    0.37127
2
This is a comment and the time is 0.6846
H    0.00571    0.00315   -0.36829
H    0.00424    0.00525    0.37147
2
This is a comment and the time is 0.7249
H    0.00605    0.00334   -0.36833
H    0.00449    0.00556    0.37170
2
This is a comment and the time is 0.7652
H    0.00639    0.00352   -0.36833
H    0.00474    0.00587    0.37189
2
This is a comment and the time is 0.8055
H    0.00672    0.00371   -0.36824
H    0.00499    0.00618    0.37199
2
This is a comment and the time is 0.8457
H    0.00706    0.00390   -0.36809
H    0.00524    0.00649    0.37202
2
This is a comment and the time is 0.8860
H    0.00739    0.00408   -0.36792
H    0.00549    0.00680    0.37204
2
This is a comment and the time is 0.9263
H    0.00773    0.00427   -0.36778
H    0.00574    0.00711    0.37209
2
This is a comment and the time is 0.9666
H    0.00807    0.00445   -0.36769
H    0.00599    0.00742    0.37218
