2
This is a comment and the time is 0.0000
H    0.00000    0.00000   -0.36700
H    0.00000    0.00000    0.36700
2
This is a comment and the time is 0.0403
H    0.00006    0.00021   -0.36784
H    0.00024    0.00030    0.36830
2
This is a comment and the time is 0.0805
H    0.00013    0.00041   -0.37021
H    0.00049    0.00060    0.37112
2
This is a comment and the time is 0.1208
H    0.00019    0.00062   -0.37206
H    0.00073    0.00090    0.37341
2
This is a comment and the time is 0.1611
H    0.00026    0.00083   -0.37174
H    0.00097    0.00120    0.37355
2
This is a comment and the time is 0.2014
H    0.00032    0.00103   -0.36934
H    0.00121    0.00150    0.37160
2
This is a comment and the time is 0.2416
H    0.00039    0.00124   -0.36656
H    0.00145    0.00180    0.36928
2
This is a comment and the time is 0.2819
H    0.00046    0.00145   -0.36543
H    0.00169    0.00210    0.36860
2
This is a comment and the time is 0.3222
H    0.00052    0.00166   -0.36666
H    0.00194    0.00240    0.37028
2
This is a comment and the time is 0.3625
H    0.00058    0.00186   -0.36909
H    0.00218    0.00271    0.37316
2
This is a comment and the time is 0.4027
H    0.00064    0.00206   -0.37064
H    0.00243    0.00301    0.37516
2
This is a comment and the time is 0.4430
H    0.00071    0.00227   -0.36989
H    0.00267    0.00331    0.37487
2
This is a comment and the time is 0.4833
H    0.00078    0.00248   -0.36727
H    0.00290    0.00361    0.37269
2
This is a comment and the time is 0.5236
H    0.00085    0.00269   -0.36466
H    0.00314    0.00390    0.37054
2
This is a comment and the time is 0.5638
H    0.00092    0.00290   -0.36394
H    0.00338    0.00420    0.37027
2
This is a comment and the time is 0.6041
H    0.00097    0.00310   -0.36551
H    0.00363    0.00451    0.37229
2
This is a comment and the time is 0.6444
H    0.00103    0.00331   -0.36794
H    0.00388    0.00481    0.37518
2
This is a comment and the time is 0.6846
H    0.00109    0.00351   -0.36914
H    0.00413    0.00512    0.37683
2
This is a comment and the time is 0.7249
H    0.00116    0.00372   -0.36798
H    0.00437    0.00541    0.37612
2
This is a comment and the time is 0.7652
H    0.00123    0.00393   -0.36520
H    0.00460    0.00571    0.37379
2
This is a comment and the time is 0.8055
H    0.00131    0.00414   -0.36281
H    0.00483    0.00600    0.37186
2
This is a comment and the time is 0.8457
H    0.00137    0.00435   -0.36253
H    0.00507    0.00630    0.37202
2
This is a comment and the time is 0.8860
H    0.00143    0.00455   -0.36439
H    0.00532    0.00661    0.37434
2
This is a comment and the time is 0.9263
H    0.00148    0.00475   -0.36675
H    0.00558    0.00692    0.37715
2
This is a comment and the time is 0.9666
H    0.00154    0.00496   -0.36756
H    0.00583    0.00722    0.37842
