3
This is a comment and the time is 0.0089
O    1.93828    2.31912    1.71546
H    1.78790    3.24092    1.51501
H    2.30407    1.98040    0.90514
3
This is a comment and the time is 0.0178
O    1.93932    2.31937    1.71074
H    1.78621    3.24108    1.51889
H    2.30484    1.98019    0.90608
3
This is a comment and the time is 0.0267
O    1.93918    2.31966    1.70888
H    1.78406    3.24132    1.52318
H    2.30727    1.97985    0.90378
3
This is a comment and the time is 0.0356
O    1.93803    2.31994    1.70989
H    1.78151    3.24167    1.52745
H    2.31110    1.97940    0.89862
3
This is a comment and the time is 0.0445
O    1.93702    2.32014    1.71146
H    1.77857    3.24214    1.53158
H    2.31518    1.97893    0.89304
3
This is a comment and the time is 0.0534
O    1.93741    2.32018    1.71086
H    1.77527    3.24271    1.53554
H    2.31823    1.97851    0.88980
3
This is a comment and the time is 0.0623
O    1.93964    2.32002    1.70730
H    1.77173    3.24339    1.53908
H    2.31967    1.97819    0.88994
3
This is a comment and the time is 0.0712
O    1.94300    2.31968    1.70260
H    1.76817    3.24415    1.54174
H    2.32001    1.97796    0.89209
3
This is a comment and the time is 0.0801
O    1.94615    2.31921    1.69992
H    1.76488    3.24497    1.54300
H    2.32027    1.97781    0.89363
3
This is a comment and the time is 0.0890
O    1.94813    2.31867    1.70130
H    1.76213    3.24580    1.54262
H    2.32118    1.97771    0.89276
3
This is a comment and the time is 0.0979
O    1.94898    2.31812    1.70602
H    1.76008    3.24659    1.54081
H    2.32251    1.97767    0.88996
3
This is a comment and the time is 0.1068
O    1.94959    2.31760    1.71112
H    1.75879    3.24725    1.53822
H    2.32332    1.97772    0.88757
3
This is a comment and the time is 0.1157
O    1.95082    2.31714    1.71354
H    1.75831    3.24774    1.53557
H    2.32270    1.97789    0.88792
3
This is a comment and the time is 0.1246
O    1.95270    2.31681    1.71242
H    1.75870    3.24799    1.53330
H    2.32057    1.97815    0.89142
3
This is a comment and the time is 0.1335
O    1.95427    2.31669    1.70964
H    1.76006    3.24798    1.53148
H    2.31778    1.97848    0.89615
3
This is a comment and the time is 0.1424
O    1.95424    2.31683    1.70822
H    1.76244    3.24771    1.52992
H    2.31555    1.97880    0.89925
3
This is a comment and the time is 0.1513
O    1.95196    2.31725    1.70985
H    1.76579    3.24721    1.52856
H    2.31461    1.97907    0.89910
3
This is a comment and the time is 0.1602
O    1.94795    2.31792    1.71355
H    1.76987    3.24650    1.52755
H    2.31467    1.97930    0.89653
3
This is a comment and the time is 0.1691
O    1.94356    2.31876    1.71641
H    1.77436    3.24564    1.52722
H    2.31472    1.97952    0.89412
3
This is a comment and the time is 0.1780
O    1.94007    2.31965    1.71593
H    1.77889    3.24469    1.52774
H    2.31380    1.97977    0.89420
3
This is a comment and the time is 0.1869
O    1.93788    2.32053    1.71203
H    1.78321    3.24374    1.52892
H    2.31181    1.98004    0.89703
3
This is a comment and the time is 0.1958
O    1.93631    2.32132    1.70724
H    1.78718    3.24287    1.53019
H    2.30954    1.98031    0.90068
3
This is a comment and the time is 0.2047
O    1.93435    2.32199    1.70476
H    1.79073    3.24217    1.53092
H    2.30809    1.98053    0.90255
3
This is a comment and the time is 0.2136
O    1.93157    2.32250    1.70611
H    1.79375    3.24171    1.53077
H    2.30797    1.98068    0.90147
3
This is a comment and the time is 0.2225
O    1.92863    2.32277    1.71003
H    1.79611    3.24152    1.52983
H    2.30869    1.98078    0.89861
3
This is a comment and the time is 0.2314
O    1.92679    2.32278    1.71349
H    1.79763    3.24161    1.52851
H    2.30914    1.98088    0.89658
3
This is a comment and the time is 0.2403
O    1.92703    2.32250    1.71407
H    1.79819    3.24199    1.52722
H    2.30848    1.98098    0.89741
3
This is a comment and the time is 0.2492
O    1.92920    2.32197    1.71179
H    1.79780    3.24261    1.52613
H    2.30683    1.98107    0.90091
3
This is a comment and the time is 0.2581
O    1.93216    2.32127    1.70903
H    1.79660    3.24346    1.52515
H    2.30520    1.98112    0.90477
3
This is a comment and the time is 0.2670
O    1.93452    2.32049    1.70859
H    1.79478    3.24448    1.52416
H    2.30479    1.98107    0.90632
3
This is a comment and the time is 0.2759
O    1.93567    2.31972    1.71139
H    1.79251    3.24562    1.52328
H    2.30605    1.98090    0.90451
3
This is a comment and the time is 0.2848
O    1.93607    2.31901    1.71563
H    1.78987    3.24680    1.52297
H    2.30842    1.98062    0.90069
3
This is a comment and the time is 0.2937
O    1.93679    2.31839    1.71812
H    1.78693    3.24796    1.52379
H    2.31078    1.98028    0.89751
3
This is a comment and the time is 0.3026
O    1.93851    2.31787    1.71667
H    1.78381    3.24902    1.52606
H    2.31231    1.97992    0.89680
3
This is a comment and the time is 0.3115
O    1.94092    2.31750    1.71181
H    1.78072    3.24996    1.52963
H    2.31312    1.97956    0.89821
3
This is a comment and the time is 0.3204
O    1.94287    2.31729    1.70641
H    1.77795    3.25074    1.53392
H    2.31407    1.97917    0.89945
3
This is a comment and the time is 0.3293
O    1.94321    2.31727    1.70346
H    1.77578    3.25137    1.53821
H    2.31603    1.97875    0.89822
3
This is a comment and the time is 0.3382
O    1.94171    2.31742    1.70386
H    1.77436    3.25185    1.54205
H    2.31908    1.97832    0.89410
3
This is a comment and the time is 0.3471
O    1.93926    2.31767    1.70585
H    1.77371    3.25218    1.54529
H    2.32232    1.97794    0.88900
3
This is a comment and the time is 0.3560
O    1.93722    2.31793    1.70649
H    1.77379    3.25237    1.54797
H    2.32441    1.97767    0.88578
3
This is a comment and the time is 0.3649
O    1.93646    2.31815    1.70417
H    1.77454    3.25245    1.55004
H    2.32455    1.97756    0.88616
3
This is a comment and the time is 0.3738
O    1.93669    2.31830    1.69991
H    1.77598    3.25244    1.55116
H    2.32301    1.97762    0.88942
3
This is a comment and the time is 0.3827
O    1.93674    2.31840    1.69670
H    1.77819    3.25237    1.55088
H    2.32088    1.97779    0.89303
3
This is a comment and the time is 0.3916
O    1.93554    2.31845    1.69715
H    1.78119    3.25225    1.54890
H    2.31922    1.97805    0.89468
3
This is a comment and the time is 0.4005
O    1.93296    2.31848    1.70144
H    1.78489    3.25211    1.54539
H    2.31823    1.97836    0.89401
3
This is a comment and the time is 0.4094
O    1.92996    2.31847    1.70716
H    1.78905    3.25193    1.54094
H    2.31721    1.97873    0.89288
3
This is a comment and the time is 0.4183
O    1.92779    2.31843    1.71102
H    1.79339    3.25173    1.53632
H    2.31517    1.97918    0.89375
3
This is a comment and the time is 0.4272
O    1.92704    2.31837    1.71135
H    1.79769    3.25148    1.53216
H    2.31175    1.97968    0.89769
3
This is a comment and the time is 0.4361
O    1.92711    2.31834    1.70922
H    1.80184    3.25119    1.52872
H    2.30766    1.98018    0.90338
3
This is a comment and the time is 0.4450
O    1.92672    2.31842    1.70748
H    1.80579    3.25088    1.52598
H    2.30423    1.98061    0.90799
3
This is a comment and the time is 0.4539
O    1.92485    2.31863    1.70837
H    1.80951    3.25057    1.52389
H    2.30251    1.98090    0.90930
3
This is a comment and the time is 0.4628
O    1.92159    2.31898    1.71171
H    1.81286    3.25027    1.52266
H    2.30256    1.98104    0.90731
3
This is a comment and the time is 0.4716
O    1.91805    2.31943    1.71497
H    1.81564    3.25000    1.52266
H    2.30346    1.98105    0.90417
3
This is a comment and the time is 0.4805
O    1.91559    2.31992    1.71525
H    1.81764    3.24978    1.52420
H    2.30404    1.98098    0.90247
3
This is a comment and the time is 0.4894
O    1.91479    2.32038    1.71156
H    1.81880    3.24965    1.52722
H    2.30382    1.98085    0.90326
3
This is a comment and the time is 0.4983
O    1.91507    2.32077    1.70570
H    1.81918    3.24965    1.53119
H    2.30330    1.98064    0.90527
3
This is a comment and the time is 0.5072
O    1.91516    2.32107    1.70092
H    1.81896    3.24984    1.53536
H    2.30355    1.98035    0.90600
3
This is a comment and the time is 0.5161
O    1.91422    2.32124    1.69953
H    1.81831    3.25024    1.53909
H    2.30528    1.97997    0.90378
3
This is a comment and the time is 0.5250
O    1.91246    2.32124    1.70123
H    1.81731    3.25088    1.54211
H    2.30817    1.97953    0.89917
3
This is a comment and the time is 0.5339
O    1.91111    2.32102    1.70349
H    1.81594    3.25174    1.54452
H    2.31103    1.97909    0.89463
3
This is a comment and the time is 0.5428
O    1.91139    2.32053    1.70359
H    1.81420    3.25280    1.54647
H    2.31262    1.97871    0.89270
3
This is a comment and the time is 0.5517
O    1.91358    2.31978    1.70082
H    1.81218    3.25403    1.54800
H    2.31258    1.97842    0.89405
3
This is a comment and the time is 0.5606
O    1.91672    2.31885    1.69707
H    1.81010    3.25538    1.54886
H    2.31166    1.97819    0.89706
3
This is a comment and the time is 0.5695
O    1.91931    2.31781    1.69532
H    1.80821    3.25680    1.54879
H    2.31109    1.97800    0.89901
3
This is a comment and the time is 0.5784
O    1.92038    2.31678    1.69725
H    1.80672    3.25822    1.54772
H    2.31164    1.97781    0.89826
3
This is a comment and the time is 0.5873
O    1.92014    2.31581    1.70186
H    1.80571    3.25957    1.54603
H    2.31302    1.97762    0.89546
3
This is a comment and the time is 0.5962
O    1.91970    2.31496    1.70612
H    1.80514    3.26077    1.54437
H    2.31416    1.97746    0.89298
3
This is a comment and the time is 0.6051
O    1.92007    2.31427    1.70721
H    1.80498    3.26174    1.54336
H    2.31409    1.97737    0.89302
3
This is a comment and the time is 0.6140
O    1.92127    2.31379    1.70464
H    1.80527    3.26245    1.54327
H    2.31273    1.97734    0.89581
3
This is a comment and the time is 0.6229
O    1.92225    2.31358    1.70058
H    1.80615    3.26286    1.54391
H    2.31099    1.97733    0.89934
3
This is a comment and the time is 0.6318
O    1.92166    2.31369    1.69807
H    1.80777    3.26297    1.54493
H    2.31010    1.97730    0.90095
3
This is a comment and the time is 0.6407
O    1.91889    2.31411    1.69865
H    1.81015    3.26282    1.54604
H    2.31063    1.97723    0.89937
3
This is a comment and the time is 0.6496
O    1.91457    2.31479    1.70114
H    1.81318    3.26242    1.54728
H    2.31204    1.97715    0.89577
3
This is a comment and the time is 0.6585
O    1.91020    2.31563    1.70266
H    1.81665    3.26181    1.54881
H    2.31308    1.97710    0.89283
3
This is a comment and the time is 0.6674
O    1.90701    2.31655    1.70098
H    1.82035    3.26107    1.55071
H    2.31271    1.97712    0.89273
3
This is a comment and the time is 0.6763
O    1.90512    2.31746    1.69635
H    1.82420    3.26024    1.55271
H    2.31088    1.97723    0.89549
3
This is a comment and the time is 0.6852
O    1.90350    2.31832    1.69137
H    1.82824    3.25942    1.55428
H    2.30859    1.97739    0.89902
3
This is a comment and the time is 0.6941
O    1.90088    2.31909    1.68908
H    1.83255    3.25867    1.55488
H    2.30704    1.97756    0.90083
3
This is a comment and the time is 0.7030
O    1.89679    2.31974    1.69061
H    1.83710    3.25805    1.55430
H    2.30670    1.97773    0.89999
3
This is a comment and the time is 0.7119
O    1.89204    2.32020    1.69438
H    1.84175    3.25760    1.55276
H    2.30694    1.97790    0.89788
3
This is a comment and the time is 0.7208
O    1.88811    2.32044    1.69735
H    1.84623    3.25735    1.55076
H    2.30652    1.97811    0.89704
3
This is a comment and the time is 0.7297
O    1.88605    2.32044    1.69734
H    1.85035    3.25729    1.54873
H    2.30459    1.97836    0.89919
3
This is a comment and the time is 0.7386
O    1.88564    2.32021    1.69469
H    1.85402    3.25744    1.54687
H    2.30146    1.97863    0.90383
3
This is a comment and the time is 0.7475
O    1.88557    2.31983    1.69189
H    1.85730    3.25778    1.54511
H    2.29839    1.97886    0.90850
3
This is a comment and the time is 0.7564
O    1.88445    2.31938    1.69155
H    1.86024    3.25831    1.54341
H    2.29670    1.97898    0.91066
3
This is a comment and the time is 0.7653
O    1.88190    2.31889    1.69426
H    1.86281    3.25900    1.54193
H    2.29681    1.97896    0.90955
3
This is a comment and the time is 0.7742
O    1.87882    2.31842    1.69804
H    1.86485    3.25982    1.54116
H    2.29799    1.97882    0.90666
3
This is a comment and the time is 0.7831
O    1.87670    2.31794    1.69981
H    1.86615    3.26072    1.54164
H    2.29893    1.97859    0.90453
3
This is a comment and the time is 0.7920
O    1.87646    2.31749    1.69773
H    1.86662    3.26166    1.54367
H    2.29884    1.97829    0.90470
3
This is a comment and the time is 0.8009
O    1.87764    2.31708    1.69264
H    1.86636    3.26263    1.54711
H    2.29806    1.97793    0.90647
3
This is a comment and the time is 0.8098
O    1.87880    2.31674    1.68738
H    1.86563    3.26362    1.55143
H    2.29776    1.97747    0.90752
3
This is a comment and the time is 0.8187
O    1.87859    2.31648    1.68464
H    1.86472    3.26462    1.55607
H    2.29901    1.97692    0.90574
3
This is a comment and the time is 0.8276
O    1.87676    2.31631    1.68490
H    1.86381    3.26563    1.56069
H    2.30188    1.97628    0.90098
3
This is a comment and the time is 0.8365
O    1.87438    2.31615    1.68619
H    1.86295    3.26664    1.56523
H    2.30525    1.97562    0.89527
3
This is a comment and the time is 0.8454
O    1.87295    2.31597    1.68570
H    1.86215    3.26761    1.56973
H    2.30762    1.97502    0.89138
3
This is a comment and the time is 0.8543
O    1.87320    2.31573    1.68209
H    1.86146    3.26855    1.57409
H    2.30819    1.97452    0.89075
3
This is a comment and the time is 0.8632
O    1.87447    2.31541    1.67666
H    1.86113    3.26944    1.57788
H    2.30739    1.97414    0.89251
3
This is a comment and the time is 0.8721
O    1.87517    2.31507    1.67238
H    1.86143    3.27027    1.58056
H    2.30651    1.97384    0.89423
3
This is a comment and the time is 0.8810
O    1.87403    2.31472    1.67162
H    1.86260    3.27103    1.58174
H    2.30662    1.97362    0.89393
3
This is a comment and the time is 0.8899
O    1.87102    2.31440    1.67433
H    1.86466    3.27170    1.58142
H    2.30770    1.97347    0.89166
3
This is a comment and the time is 0.8988
O    1.86744    2.31409    1.67809
H    1.86741    3.27225    1.57999
H    2.30866    1.97342    0.88945
3
This is a comment and the time is 0.9077
O    1.86486    2.31381    1.67994
H    1.87059    3.27264    1.57802
H    2.30819    1.97350    0.88969
3
This is a comment and the time is 0.9166
O    1.86392    2.31359    1.67867
H    1.87400    3.27285    1.57588
H    2.30586    1.97370    0.89321
3
This is a comment and the time is 0.9255
O    1.86382    2.31348    1.67569
H    1.87760    3.27288    1.57367
H    2.30249    1.97399    0.89852
3
This is a comment and the time is 0.9344
O    1.86300    2.31354    1.67380
H    1.88141    3.27271    1.57132
H    2.29963    1.97428    0.90289
3
This is a comment and the time is 0.9433
O    1.86037    2.31385    1.67493
H    1.88541    3.27235    1.56883
H    2.29839    1.97453    0.90436
3
This is a comment and the time is 0.9522
O    1.85623    2.31440    1.67854
H    1.88942    3.27180    1.56653
H    2.29865    1.97471    0.90318
3
This is a comment and the time is 0.9611
O    1.85209    2.31518    1.68198
H    1.89313    3.27108    1.56491
H    2.29923    1.97486    0.90147
3
This is a comment and the time is 0.9700
O    1.84951    2.31612    1.68250
H    1.89625    3.27020    1.56445
H    2.29882    1.97498    0.90153
3
This is a comment and the time is 0.9789
O    1.84892    2.31721    1.67942
H    1.89871    3.26920    1.56524
H    2.29708    1.97510    0.90394
3
This is a comment and the time is 0.9878
O    1.84928    2.31839    1.67462
H    1.90066    3.26813    1.56695
H    2.29490    1.97517    0.90715
3
This is a comment and the time is 0.9967
O    1.84891    2.31965    1.67109
H    1.90237    3.26707    1.56906
H    2.29369    1.97517    0.90869
3
This is a comment and the time is 1.0056
O    1.84676    2.32094    1.67062
H    1.90410    3.26607    1.57115
H    2.29425    1.97507    0.90719
3
This is a comment and the time is 1.0145
O    1.84322    2.32217    1.67251
H    1.90590    3.26521    1.57310
H    2.29612    1.97490    0.90347
3
This is a comment and the time is 1.0234
O    1.83982    2.32324    1.67415
H    1.90771    3.26451    1.57505
H    2.29784    1.97472    0.89999
3
This is a comment and the time is 1.0323
O    1.83796    2.32406    1.67315
H    1.90948    3.26403    1.57712
H    2.29806    1.97457    0.89905
3
This is a comment and the time is 1.0412
O    1.83780    2.32459    1.66920
H    1.91130    3.26378    1.57922
H    2.29654    1.97447    0.90102
3
This is a comment and the time is 1.0501
O    1.83807    2.32483    1.66440
H    1.91338    3.26381    1.58100
H    2.29432    1.97440    0.90416
3
This is a comment and the time is 1.0590
O    1.83702    2.32481    1.66155
H    1.91600    3.26412    1.58212
H    2.29288    1.97432    0.90600
3
This is a comment and the time is 1.0679
O    1.83379    2.32455    1.66206
H    1.91923    3.26470    1.58246
H    2.29301    1.97419    0.90527
3
This is a comment and the time is 1.0768
O    1.82906    2.32408    1.66477
H    1.92293    3.26552    1.58229
H    2.29418    1.97402    0.90286
3
This is a comment and the time is 1.0857
O    1.82458    2.32343    1.66687
H    1.92676    3.26653    1.58211
H    2.29496    1.97385    0.90105
3
This is a comment and the time is 1.0946
O    1.82187    2.32264    1.66602
H    1.93037    3.26766    1.58243
H    2.29419    1.97371    0.90170
3
This is a comment and the time is 1.1035
O    1.82106    2.32178    1.66213
H    1.93360    3.26886    1.58345
H    2.29191    1.97356    0.90470
3
This is a comment and the time is 1.1124
O    1.82084    2.32094    1.65736
H    1.93644    3.27007    1.58507
H    2.28941    1.97338    0.90796
3
This is a comment and the time is 1.1213
O    1.81956    2.32024    1.65443
H    1.93900    3.27125    1.58707
H    2.28828    1.97310    0.90901
3
This is a comment and the time is 1.1302
O    1.81655    2.31973    1.65447
H    1.94124    3.27233    1.58936
H    2.28917    1.97272    0.90679
3
This is a comment and the time is 1.1391
O    1.81276    2.31945    1.65614
H    1.94299    3.27328    1.59212
H    2.29135    1.97225    0.90249
3
This is a comment and the time is 1.1480
O    1.81002    2.31939    1.65669
H    1.94399    3.27404    1.59560
H    2.29322    1.97174    0.89858
3
This is a comment and the time is 1.1569
O    1.80967    2.31951    1.65418
H    1.94411    3.27460    1.59989
H    2.29358    1.97126    0.89692
3
This is a comment and the time is 1.1658
O    1.81143    2.31981    1.64900
H    1.94354    3.27494    1.60470
H    2.29252    1.97081    0.89741
3
This is a comment and the time is 1.1747
O    1.81361    2.32028    1.64365
H    1.94267    3.27508    1.60944
H    2.29135    1.97038    0.89814
3
This is a comment and the time is 1.1836
O    1.81432    2.32093    1.64084
H    1.94198    3.27505    1.61347
H    2.29146    1.96997    0.89703
3
This is a comment and the time is 1.1925
O    1.81289    2.32170    1.64143
H    1.94177    3.27486    1.61643
H    2.29323    1.96958    0.89360
3
This is a comment and the time is 1.2014
O    1.81030    2.32252    1.64386
H    1.94209    3.27455    1.61828
H    2.29564    1.96926    0.88944
3
This is a comment and the time is 1.2103
O    1.80830    2.32333    1.64538
H    1.94284    3.27412    1.61920
H    2.29701    1.96907    0.88712
3
This is a comment and the time is 1.2192
O    1.80801    2.32407    1.64425
H    1.94398    3.27360    1.61932
H    2.29629    1.96905    0.88825
3
This is a comment and the time is 1.2281
O    1.80897    2.32470    1.64109
H    1.94561    3.27301    1.61857
H    2.29385    1.96919    0.89228
3
This is a comment and the time is 1.2370
O    1.80945    2.32527    1.63841
H    1.94793    3.27239    1.61672
H    2.29117    1.96944    0.89693
3
This is a comment and the time is 1.2459
O    1.80785    2.32581    1.63856
H    1.95109    3.27176    1.61366
H    2.28975    1.96973    0.89996
3
This is a comment and the time is 1.2548
O    1.80392    2.32634    1.64191
H    1.95497    3.27111    1.60959
H    2.28993    1.97004    0.90080
3
This is a comment and the time is 1.2637
O    1.79909    2.32685    1.64649
H    1.95917    3.27047    1.60504
H    2.29069    1.97036    0.90089
3
This is a comment and the time is 1.2726
O    1.79542    2.32736    1.64946
H    1.96318    3.26980    1.60070
H    2.29049    1.97072    0.90238
3
This is a comment and the time is 1.2815
O    1.79408    2.32787    1.64924
H    1.96660    3.26911    1.59709
H    2.28853    1.97108    0.90633
3
This is a comment and the time is 1.2904
O    1.79459    2.32843    1.64665
H    1.96932    3.26840    1.59440
H    2.28544    1.97143    0.91174
3
This is a comment and the time is 1.2993
O    1.79519    2.32909    1.64423
H    1.97143    3.26770    1.59252
H    2.28287    1.97167    0.91615
3
This is a comment and the time is 1.3082
O    1.79432    2.32987    1.64418
H    1.97309    3.26702    1.59134
H    2.28220    1.97176    0.91750
3
This is a comment and the time is 1.3171
O    1.79185    2.33076    1.64663
H    1.97432    3.26639    1.59091
H    2.28357    1.97169    0.91559
3
This is a comment and the time is 1.3260
O    1.78919    2.33171    1.64954
H    1.97497    3.26584    1.59148
H    2.28572    1.97148    0.91223
3
This is a comment and the time is 1.3349
O    1.78814    2.33265    1.65026
H    1.97492    3.26537    1.59327
H    2.28695    1.97120    0.90985
3
This is a comment and the time is 1.3438
O    1.78944    2.33351    1.64756
H    1.97425    3.26502    1.59629
H    2.28645    1.97088    0.90965
3
This is a comment and the time is 1.3527
O    1.79210    2.33425    1.64265
H    1.97334    3.26484    1.60015
H    2.28484    1.97053    0.91081
3
This is a comment and the time is 1.3616
O    1.79402    2.33483    1.63821
H    1.97274    3.26486    1.60430
H    2.28365    1.97012    0.91122
3
This is a comment and the time is 1.3705
O    1.79356    2.33526    1.63637
H    1.97291    3.26511    1.60824
H    2.28408    1.96963    0.90923
3
This is a comment and the time is 1.3794
O    1.79063    2.33549    1.63710
H    1.97400    3.26560    1.61179
H    2.28604    1.96910    0.90508
3
This is a comment and the time is 1.3883
O    1.78674    2.33550    1.63827
H    1.97591    3.26630    1.61507
H    2.28815    1.96858    0.90076
3
This is a comment and the time is 1.3972
O    1.78377    2.33527    1.63734
H    1.97838    3.26718    1.61828
H    2.28879    1.96813    0.89860
3
This is a comment and the time is 1.4061
O    1.78253    2.33483    1.63335
H    1.98120    3.26818    1.62150
H    2.28734    1.96777    0.89948
3
This is a comment and the time is 1.4149
O    1.78216    2.33425    1.62769
H    1.98437    3.26924    1.62457
H    2.28467    1.96747    0.90219
3
This is a comment and the time is 1.4238
O    1.78089    2.33364    1.62305
H    1.98794    3.27032    1.62718
H    2.28252    1.96720    0.90433
3
This is a comment and the time is 1.4327
O    1.77749    2.33312    1.62137
H    1.99182    3.27133    1.62916
H    2.28217    1.96690    0.90416
3
This is a comment and the time is 1.4416
O    1.77245    2.33275    1.62241
H    1.99565    3.27222    1.63059
H    2.28351    1.96658    0.90181
3
This is a comment and the time is 1.4505
O    1.76775    2.33258    1.62398
H    1.99886    3.27290    1.63180
H    2.28513    1.96626    0.89915
3
This is a comment and the time is 1.4594
O    1.76549    2.33263    1.62370
H    2.00091    3.27331    1.63311
H    2.28546    1.96599    0.89823
3
This is a comment and the time is 1.4683
O    1.76639    2.33293    1.62089
H    2.00158    3.27342    1.63461
H    2.28404    1.96577    0.89966
3
This is a comment and the time is 1.4772
O    1.76921    2.33350    1.61711
H    2.00106    3.27323    1.63605
H    2.28186    1.96559    0.90213
3
This is a comment and the time is 1.4861
O    1.77178    2.33433    1.61496
H    1.99983    3.27278    1.63700
H    2.28066    1.96540    0.90344
3
This is a comment and the time is 1.4950
O    1.77258    2.33541    1.61609
H    1.99835    3.27211    1.63717
H    2.28147    1.96519    0.90227
3
This is a comment and the time is 1.5039
O    1.77181    2.33665    1.61987
H    1.99687    3.27127    1.63652
H    2.28386    1.96498    0.89925
3
This is a comment and the time is 1.5128
O    1.77105    2.33795    1.62387
H    1.99546    3.27032    1.63526
H    2.28616    1.96483    0.89663
3
This is a comment and the time is 1.5217
O    1.77187    2.33918    1.62568
H    1.99417    3.26932    1.63363
H    2.28676    1.96479    0.89657
3
This is a comment and the time is 1.5306
O    1.77445    2.34026    1.62472
H    1.99322    3.26833    1.63166
H    2.28527    1.96488    0.89962
3
This is a comment and the time is 1.5395
O    1.77727    2.34117    1.62263
H    1.99301    3.26743    1.62919
H    2.28279    1.96507    0.90430
3
This is a comment and the time is 1.5484
O    1.77824    2.34190    1.62196
H    1.99393    3.26667    1.62598
H    2.28102    1.96529    0.90829
3
This is a comment and the time is 1.5573
O    1.77622    2.34247    1.62415
H    1.99613    3.26609    1.62204
H    2.28098    1.96550    0.91017
3
This is a comment and the time is 1.5662
O    1.77190    2.34287    1.62835
H    1.99937    3.26569    1.61767
H    2.28219    1.96570    0.91046
3
This is a comment and the time is 1.5751
O    1.76738    2.34311    1.63208
H    2.00310    3.26545    1.61345
H    2.28311    1.96589    0.91107
3
This is a comment and the time is 1.5840
O    1.76466    2.34321    1.63305
H    2.00671    3.26534    1.60996
H    2.28235    1.96609    0.91370
3
This is a comment and the time is 1.5929
O    1.76425    2.34323    1.63093
H    2.00982    3.26534    1.60754
H    2.27979    1.96626    0.91837
3
This is a comment and the time is 1.6018
O    1.76494    2.34326    1.62754
H    2.01231    3.26541    1.60619
H    2.27674    1.96635    0.92322
3
This is a comment and the time is 1.6107
O    1.76485    2.34337    1.62545
H    2.01427    3.26556    1.60578
H    2.27500    1.96628    0.92584
3
This is a comment and the time is 1.6196
O    1.76303    2.34363    1.62601
H    2.01569    3.26575    1.60624
H    2.27553    1.96603    0.92494
3
This is a comment and the time is 1.6285
O    1.76026    2.34402    1.62832
H    2.01640    3.26599    1.60769
H    2.27773    1.96559    0.92130
3
This is a comment and the time is 1.6374
O    1.75848    2.34451    1.62994
H    2.01614    3.26624    1.61035
H    2.27990    1.96504    0.91714
3
This is a comment and the time is 1.6463
O    1.75928    2.34504    1.62878
H    2.01484    3.26651    1.61429
H    2.28054    1.96443    0.91448
3
This is a comment and the time is 1.6552
O    1.76255    2.34555    1.62471
H    2.01278    3.26682    1.61928
H    2.27946    1.96380    0.91368
3
This is a comment and the time is 1.6641
O    1.76646    2.34602    1.61970
H    2.01059    3.26720    1.62474
H    2.27787    1.96315    0.91335
3
This is a comment and the time is 1.6730
O    1.76869    2.34643    1.61630
H    2.00897    3.26767    1.63005
H    2.27739    1.96246    0.91156
3
This is a comment and the time is 1.6819
O    1.76806    2.34675    1.61574
H    2.00838    3.26826    1.63473
H    2.27875    1.96175    0.90757
3
This is a comment and the time is 1.6908
O    1.76525    2.34693    1.61700
H    2.00891    3.26895    1.63865
H    2.28116    1.96107    0.90250
3
This is a comment and the time is 1.6997
O    1.76220    2.34695    1.61766
H    2.01034    3.26972    1.64191
H    2.28291    1.96048    0.89870
3
This is a comment and the time is 1.7086
O    1.76059    2.34679    1.61578
H    2.01236    3.27050    1.64462
H    2.28264    1.96005    0.89799
3
This is a comment and the time is 1.7175
O    1.76052    2.34650    1.61145
H    2.01483    3.27127    1.64671
H    2.28036    1.95977    0.90035
3
This is a comment and the time is 1.7264
O    1.76059    2.34617    1.60677
H    2.01773    3.27196    1.64793
H    2.27753    1.95960    0.90392
3
This is a comment and the time is 1.7353
O    1.75902    2.34591    1.60429
H    2.02104    3.27253    1.64803
H    2.27593    1.95947    0.90642
3
This is a comment and the time is 1.7442
O    1.75527    2.34582    1.60510
H    2.02450    3.27293    1.64700
H    2.27635    1.95936    0.90676
3
This is a comment and the time is 1.7531
O    1.75063    2.34595    1.60808
H    2.02756    3.27310    1.64511
H    2.27807    1.95926    0.90580
3
This is a comment and the time is 1.7620
O    1.74744    2.34630    1.61080
H    2.02956    3.27300    1.64281
H    2.27939    1.95920    0.90548
3
This is a comment and the time is 1.7709
O    1.74741    2.34687    1.61141
H    2.03006    3.27262    1.64050
H    2.27904    1.95920    0.90731
3
This is a comment and the time is 1.7798
O    1.75039    2.34765    1.61004
H    2.02910    3.27198    1.63825
H    2.27716    1.95926    0.91105
3
This is a comment and the time is 1.7887
O    1.75442    2.34864    1.60866
H    2.02716    3.27113    1.63591
H    2.27520    1.95931    0.91489
3
This is a comment and the time is 1.7976
O    1.75724    2.34979    1.60953
H    2.02488    3.27015    1.63322
H    2.27478    1.95933    0.91683
3
This is a comment and the time is 1.8065
O    1.75784    2.35105    1.61334
H    2.02278    3.26913    1.63011
H    2.27643    1.95928    0.91625
3
This is a comment and the time is 1.8154
O    1.75703    2.35230    1.61863
H    2.02105    3.26815    1.62677
H    2.27910    1.95922    0.91442
3
This is a comment and the time is 1.8243
O    1.75664    2.35342    1.62280
H    2.01969    3.26726    1.62351
H    2.28097    1.95918    0.91362
3
This is a comment and the time is 1.8332
O    1.75793    2.35431    1.62400
H    2.01875    3.26652    1.62059
H    2.28077    1.95921    0.91547
3
This is a comment and the time is 1.8421
O    1.76048    2.35495    1.62246
H    2.01843    3.26599    1.61800
H    2.27867    1.95930    0.91971
3
This is a comment and the time is 1.8510
O    1.76246    2.35534    1.62032
H    2.01907    3.26571    1.61558
H    2.27618    1.95938    0.92440
3
This is a comment and the time is 1.8599
O    1.76198    2.35551    1.61988
H    2.02092    3.26570    1.61314
H    2.27494    1.95941    0.92739
3
This is a comment and the time is 1.8688
O    1.75860    2.35553    1.62189
H    2.02387    3.26596    1.61076
H    2.27551    1.95933    0.92788
3
This is a comment and the time is 1.8777
O    1.75371    2.35541    1.62491
H    2.02740    3.26643    1.60881
H    2.27699    1.95917    0.92692
3
This is a comment and the time is 1.8866
O    1.74972    2.35520    1.62650
H    2.03079    3.26706    1.60779
H    2.27773    1.95894    0.92647
3
This is a comment and the time is 1.8955
O    1.74833    2.35495    1.62503
H    2.03339    3.26778    1.60807
H    2.27665    1.95867    0.92778
3
This is a comment and the time is 1.9044
O    1.74943    2.35472    1.62100
H    2.03496    3.26854    1.60969
H    2.27411    1.95833    0.93032
3
This is a comment and the time is 1.9133
O    1.75130    2.35460    1.61668
H    2.03561    3.26931    1.61235
H    2.27173    1.95788    0.93210
3
This is a comment and the time is 1.9222
O    1.75203    2.35463    1.61441
H    2.03559    3.27007    1.61570
H    2.27115    1.95727    0.93114
3
This is a comment and the time is 1.9311
O    1.75100    2.35485    1.61491
H    2.03508    3.27082    1.61947
H    2.27282    1.95650    0.92698
3
This is a comment and the time is 1.9400
O    1.74939    2.35519    1.61674
H    2.03402    3.27153    1.62362
H    2.27563    1.95564    0.92113
3
This is a comment and the time is 1.9489
O    1.74913    2.35559    1.61743
H    2.03233    3.27219    1.62818
H    2.27771    1.95478    0.91599
3
This is a comment and the time is 1.9578
O    1.75134    2.35597    1.61541
H    2.03013    3.27280    1.63303
H    2.27783    1.95397    0.91329
3
This is a comment and the time is 1.9667
O    1.75530    2.35630    1.61118
H    2.02786    3.27339    1.63778
H    2.27627    1.95326    0.91288
3
This is a comment and the time is 1.9756
O    1.75883    2.35655    1.60702
H    2.02620    3.27396    1.64184
H    2.27454    1.95263    0.91311
3
This is a comment and the time is 1.9845
O    1.75982    2.35674    1.60521
H    2.02570    3.27454    1.64468
H    2.27417    1.95205    0.91220
3
This is a comment and the time is 1.9934
O    1.75771    2.35686    1.60634
H    2.02658    3.27512    1.64607
H    2.27555    1.95154    0.90979
3
This is a comment and the time is 2.0023
O    1.75383    2.35690    1.60891
H    2.02855    3.27568    1.64612
H    2.27758    1.95114    0.90729
