2
This is a comment and the time is 0.0403
H    0.00046    0.00046   -0.37034
H    0.00051    0.00049    0.37120
2
This is a comment and the time is 0.0805
H    0.00069    0.00069   -0.37213
H    0.00077    0.00074    0.37342
2
This is a comment and the time is 0.1208
H    0.00092    0.00092   -0.37173
H    0.00103    0.00099    0.37344
2
This is a comment and the time is 0.1611
H    0.00115    0.00115   -0.36929
H    0.00128    0.00123    0.37142
2
This is a comment and the time is 0.2014
H    0.00138    0.00138   -0.36656
H    0.00154    0.00148    0.36913
2
This is a comment and the time is 0.2416
H    0.00161    0.00161   -0.36554
H    0.00179    0.00172    0.36853
2
This is a comment and the time is 0.2819
H    0.00183    0.00184   -0.36686
H    0.00205    0.00197    0.37028
2
This is a comment and the time is 0.3222
H    0.00206    0.00207   -0.36931
H    0.00231    0.00222    0.37315
2
This is a comment and the time is 0.3625
H    0.00229    0.00230   -0.37079
H    0.00256    0.00246    0.37506
2
This is a comment and the time is 0.4027
H    0.00252    0.00253   -0.36996
H    0.00282    0.00271    0.37466
2
This is a comment and the time is 0.4430
H    0.00275    0.00276   -0.36731
H    0.00308    0.00296    0.37244
2
This is a comment and the time is 0.4833
H    0.00298    0.00299   -0.36476
H    0.00333    0.00320    0.37031
2
This is a comment and the time is 0.5236
H    0.00321    0.00322   -0.36415
H    0.00359    0.00345    0.37014
2
This is a comment and the time is 0.5638
H    0.00344    0.00345   -0.36580
H    0.00384    0.00369    0.37222
2
This is a comment and the time is 0.6041
H    0.00367    0.00368   -0.36824
H    0.00410    0.00394    0.37508
2
This is a comment and the time is 0.6444
H    0.00390    0.00391   -0.36936
H    0.00436    0.00419    0.37663
2
This is a comment and the time is 0.6846
H    0.00413    0.00414   -0.36812
H    0.00461    0.00443    0.37582
2
This is a comment and the time is 0.7249
H    0.00436    0.00437   -0.36533
H    0.00487    0.00468    0.37345
2
This is a comment and the time is 0.7652
H    0.00459    0.00460   -0.36302
H    0.00512    0.00493    0.37157
2
This is a comment and the time is 0.8055
H    0.00482    0.00483   -0.36284
H    0.00538    0.00517    0.37182
2
This is a comment and the time is 0.8457
H    0.00505    0.00506   -0.36478
H    0.00564    0.00542    0.37418
2
This is a comment and the time is 0.8860
H    0.00527    0.00529   -0.36712
H    0.00590    0.00567    0.37695
2
This is a comment and the time is 0.9263
H    0.00550    0.00552   -0.36786
H    0.00615    0.00591    0.37812
2
This is a comment and the time is 0.9666
H    0.00573    0.00575   -0.36623
H    0.00641    0.00616    0.37692
2
This is a comment and the time is 1.0068
H    0.00596    0.00598   -0.36336
H    0.00666    0.00640    0.37448
