8
This is a comment and the time is 0.0000
O    1.66436    1.67112    1.66671
H    0.67931    1.67241    1.67661
H    1.67566    1.34353    0.72980
O    1.66240    1.66647    4.99698
H    0.67954    1.67146    5.00515
H    1.67477    1.34818    4.06635
H    0.00000    0.00000    0.50000
H    0.00000    0.00000    1.50000
8
This is a comment and the time is 0.0010
O    1.66443    1.67112    1.66676
H    0.67946    1.67247    1.67674
H    1.67578    1.34362    0.72996
O    1.66240    1.66655    4.99702
H    0.67965    1.67154    5.00529
H    1.67492    1.34827    4.06643
H    0.00004    0.00002    0.50012
H    0.00004    0.00005    1.50004
