8
This is a comment and the time is 0.0000
O    1.66436    1.67112    1.66671
H    0.67931    1.67241    1.67661
H    1.67566    1.34353    0.72980
O    1.66240    1.66647    4.99698
H    0.67954    1.67146    5.00515
H    1.67477    1.34818    4.06635
H    0.00000    0.00000    0.50000
H    0.00000    0.00000    1.50000
8
This is a comment and the time is 0.0010
O    1.66440    1.67115    1.66678
H    0.67939    1.67244    1.67678
H    1.67580    1.34363    0.72993
O    1.66241    1.66656    4.99698
H    0.67969    1.67152    5.00526
H    1.67492    1.34826    4.06642
H    0.00008    0.00004    0.50006
H    0.00006    0.00004    1.50004
