8
This is a comment and the time is 0.0000
O    1.66436    1.67112    1.66671
H    0.67931    1.67241    1.67661
H    1.67566    1.34353    0.72980
O    1.66240    1.66647    4.99698
H    0.67954    1.67146    5.00515
H    1.67477    1.34818    4.06635
H    0.00000    0.00000    0.50000
H    0.00000    0.00000    1.50000
8
This is a comment and the time is 0.0010
O    1.66442    1.67118    1.66675
H    0.67943    1.67246    1.67676
H    1.67575    1.34363    0.72996
O    1.66243    1.66651    4.99705
H    0.67965    1.67157    5.00525
H    1.67492    1.34825    4.06646
H    0.00005    0.00005    0.50010
H    0.00002    0.00010    1.49998
