9
This is a comment and the time is 0.0000
C    2.00000    2.00000    0.50000
H    2.00000    1.00000    0.20000
H    1.00000    2.00000    1.10000
H    2.00000    3.00000    0.10000
C    3.50000    2.00000    0.90000
H    3.50000    2.80000    1.70000
H    3.50000    1.30000    1.70000
O    5.00000    2.00000    0.40000
H    5.50000    2.50000    0.20000
