450
Some text : some more t= 0
O         1.66436459      1.67112125      1.66670854
H         0.67931321      1.67240737      1.67660910
H         1.67566184      1.34353367      0.72980302
O         1.66239577      1.66646774      4.99698226
H         0.67954403      1.67145933      5.00514721
H         1.67477382      1.34817759      4.06635120
O         1.66630830      1.66601559      8.33043692
H         0.67687505      1.66831238      8.34040718
H         1.67809865      1.34400042      7.39960699
O         1.66572764      1.66687032      11.66376948
H         0.67623238      1.66992681      11.67165351
H         1.67104652      1.34266920      10.72927005
O         1.66753580      1.66776667      15.00419264
H         0.67897987      1.67289810      15.00955454
H         1.67525901      1.34579255      14.06848895
O         1.66474285      1.66691434      18.33303958
H         0.67697524      1.67104353      18.34324864
H         1.67399137      1.34484676      17.39639865
O         1.66655318      4.99908647      1.66603943
H         0.67036335      5.00222293      1.67739698
H         1.67631170      4.68303310      0.73188830
O         1.66490672      5.00189443      4.99778525
H         0.67668721      5.00626383      5.01267434
H         1.67553602      4.68063314      4.06780949
O         1.66284519      5.00037087      8.33069418
H         0.67435137      5.00378109      8.34134598
H         1.67660522      4.67662069      7.39402806
O         1.66786951      4.99740994      11.66499563
H         0.67510472      5.00179406      11.67686768
H         1.67531278      4.68135270      10.73432509
O         1.66463790      4.99695770      15.00145309
H         0.67698108      5.00028665      15.00842053
H         1.67542946      4.67526249      14.06569656
O         1.66657621      5.00353729      18.33468184
H         0.67525073      5.00609854      18.33924286
H         1.67318477      4.67843915      17.39633391
O         1.66822718      8.33505557      1.66484980
H         0.67819628      8.33530975      1.67297413
H         1.67391387      8.01130243      0.73178368
O         1.66654182      8.33278292      5.00079326
H         0.67835822      8.33268578      5.01011426
H         1.67515181      8.01310089      4.06625493
O         1.66599231      8.33272216      8.33394966
H         0.67640270      8.33882352      8.33866089
H         1.67264269      8.00863907      7.39434832
O         1.66353577      8.33040146      11.66593747
H         0.67862435      8.33616969      11.67745934
H         1.67488558      8.00967982      10.73342787
O         1.66552223      8.33593088      15.00099690
H         0.68142976      8.33786491      15.01151867
H         1.67675022      8.00729089      14.06507921
O         1.66411527      8.33497802      18.32885058
H         0.67219146      8.33457456      18.34242734
H         1.67466077      8.00963306      17.39843599
O         1.66831263      11.66863592      1.66655026
H         0.67596670      11.67190442      1.67545847
H         1.67415049      11.34318404      0.73088770
O         1.66593642      11.66635693      4.99547131
H         0.67800215      11.67043459      5.00876313
H         1.67568038      11.34337009      4.06432169
O         1.66512383      11.66429511      8.32984643
H         0.67666267      11.66618600      8.34387115
H         1.67250390      11.34352304      7.39293353
O         1.66740195      11.66519567      11.66987839
H         0.67622437      11.67017763      11.67405318
H         1.67384623      11.34965624      10.72817009
O         1.66436574      11.66420986      14.99680820
H         0.68315027      11.67140706      15.00942665
H         1.67540055      11.34160784      14.06601051
O         1.66832169      11.66799844      18.33459261
H         0.67995297      11.66817882      18.33883719
H         1.67390936      11.34345389      17.39925360
O         1.66761230      14.99911744      1.66743288
H         0.67872555      15.00136998      1.67535165
H         1.67115774      14.68229521      0.73171299
O         1.66645245      15.00087415      5.00084359
H         0.67708326      15.00048628      5.00558561
H         1.67171231      14.67874408      4.06415434
O         1.66404825      15.00300292      8.33247519
H         0.67230101      15.00472330      8.33955419
H         1.67352972      14.67954224      7.39618542
O         1.66299322      15.00242323      11.66644080
H         0.68219986      14.99853819      11.67692279
H         1.67486816      14.67763471      10.73314339
O         1.66374779      15.00046153      14.99821177
H         0.67683011      15.00396333      15.00709254
H         1.67763435      14.67866514      14.06450262
O         1.66170869      14.99746832      18.32711160
H         0.67641753      15.00089741      18.34159548
H         1.67671285      14.67746665      17.39596673
O         1.66371934      18.33673110      1.66324103
H         0.67654751      18.33427556      1.67310846
H         1.67677690      18.01088605      0.72957417
O         1.66748161      18.33150622      4.99981687
H         0.67714251      18.33746867      5.00844606
H         1.67659281      18.01249731      4.06422019
O         1.66165036      18.33313845      8.33318918
H         0.67825862      18.33616823      8.34311379
H         1.67372291      18.01005893      7.39306863
O         1.66736762      18.33420681      11.66761410
H         0.67471565      18.34007666      11.67603639
H         1.67453793      18.01126810      10.73212301
O         1.66590482      18.33171599      14.99978472
H         0.67902052      18.33913850      15.00576155
H         1.67418620      18.00893366      14.06124082
O         1.66473944      18.33269919      18.33083006
H         0.67942026      18.33400881      18.33750125
H         1.67250556      18.01176888      17.39600171
O         4.99827793      1.66221478      1.66729960
H         4.01146315      1.67054792      1.67195527
H         5.00795954      1.34593727      0.73008719
O         5.00231740      1.66679059      4.99891091
H         4.01029566      1.67020027      5.00794898
H         5.00700025      1.34447223      4.06566964
O         4.99604930      1.66664363      8.33261219
H         4.01394541      1.66832978      8.34018683
H         5.00417873      1.34361959      7.39787272
O         4.99987094      1.66378095      11.66477109
H         4.01046217      1.66658270      11.67422911
H         5.00843127      1.34214711      10.73025011
O         5.00027619      1.66185875      14.99779021
H         4.00968346      1.67072475      15.00493898
H         5.01024850      1.34324835      14.06257021
O         5.00025162      1.66614173      18.33304110
H         4.01274160      1.66680127      18.34007296
H         5.01086033      1.34134029      17.39643026
O         4.99472175      4.99861695      1.66068138
H         4.01208524      5.00059535      1.67204356
H         5.01060567      4.67556238      0.73201700
O         4.99848057      4.99578567      4.99874687
H         4.00751383      5.00309621      5.00746816
H         5.01022264      4.67970809      4.06611190
O         4.99929043      5.00013321      8.33433190
H         4.01209278      5.00321718      8.34246754
H         5.01088853      4.67725483      7.39603489
O         5.00003479      5.00029105      11.66468133
H         4.01355910      5.00183307      11.67057559
H         5.00638924      4.67430113      10.72911024
O         4.99971158      5.00316773      14.99799457
H         4.01338016      5.00461107      15.01010828
H         5.00972071      4.67950267      14.06368517
O         4.99390313      5.00036611      18.32823402
H         4.01191165      4.99838446      18.34157466
H         5.00877333      4.67784293      17.39594094
O         5.00417043      8.33505866      1.66498298
H         4.01210313      8.33682309      1.66959320
H         5.00849612      8.01645776      0.73020816
O         5.00045674      8.33019995      5.00017339
H         4.00982572      8.33650806      5.00592490
H         5.00662440      8.01395190      4.06510632
O         4.99609999      8.33486494      8.33080270
H         4.00872934      8.33798980      8.33879147
H         5.00747100      8.01397866      7.39599433
O         5.00034872      8.33269183      11.66715221
H         4.00950906      8.33496012      11.67497983
H         5.00671488      8.01227949      10.73561069
O         4.99865733      8.33479849      14.99590170
H         4.01241154      8.33543311      15.00771540
H         5.01145878      8.00813687      14.06205521
O         5.00005278      8.33144223      18.33092197
H         4.00946139      8.33546810      18.33759629
H         5.00893566      8.01040286      17.40154625
O         4.99842438      11.66737500      1.66312026
H         4.00423423      11.66894274      1.67287869
H         5.00795368      11.34218035      0.73414189
O         5.00143489      11.66485769      4.99659428
H         4.01260158      11.67124217      5.00505186
H         5.00681734      11.34780404      4.06236396
O         4.99868168      11.66850394      8.33257923
H         4.00819708      11.67334826      8.34230196
H         5.00874219      11.34225211      7.39511272
O         5.00086196      11.66353074      11.66773656
H         4.01074472      11.67189780      11.67283798
H         5.00706487      11.34609309      10.73034212
O         4.99757429      11.66539979      14.99801261
H         4.01035206      11.66977591      15.00503205
H         5.00998386      11.34199072      14.06459810
O         5.00157315      11.66405414      18.33490351
H         4.01245232      11.67119629      18.34012129
H         5.00701170      11.34579456      17.39984886
O         4.99641258      15.00089084      1.66131021
H         4.01142531      15.00284710      1.67236480
H         5.01133997      14.67618965      0.72808130
O         5.00132205      15.00121855      4.99896282
H         4.00844849      15.00288568      5.00549315
H         5.00748637      14.68101887      4.06637728
O         5.00088017      14.99751139      8.33326237
H         4.01048460      14.99973228      8.34042062
H         5.00725754      14.67683369      7.39747109
O         4.99861443      15.00218562      11.66512100
H         4.01228492      15.00299803      11.67370224
H         5.00716255      14.67882454      10.73285362
O         4.99634711      14.99782867      15.00023680
H         4.00961945      15.00180869      15.00256920
H         5.01223286      14.67836525      14.06540071
O         4.99850052      14.99935565      18.33342184
H         4.01205347      15.00166018      18.34002370
H         5.00752104      14.67911338      17.39751736
O         4.99829224      18.33300279      1.66617421
H         4.01082875      18.33863029      1.67738337
H         5.00737760      18.01250814      0.73004849
O         4.99952708      18.32989403      4.99721699
H         4.01334112      18.33653429      5.00468670
H         5.00608201      18.01248604      4.06386880
O         5.00044885      18.33333408      8.33341361
H         4.01086087      18.33452177      8.34226250
H         5.00705540      18.01410656      7.39885911
O         4.99789079      18.33092108      11.66484554
H         4.00985815      18.33588455      11.67469328
H         5.00428533      18.01216953      10.72890140
O         5.00036097      18.33452942      14.99722354
H         4.00808399      18.33858833      15.00729899
H         5.01333315      18.01093755      14.06144828
O         4.99591896      18.33398388      18.32897771
H         4.01026746      18.33434228      18.34011536
H         5.00733484      18.00845873      17.39738859
O         8.33082372      1.66602441      1.66410498
H         7.34505400      1.66767536      1.67493366
H         8.34553156      1.34200035      0.72694528
O         8.33385737      1.66442438      4.99638709
H         7.34631575      1.66950488      5.00767935
H         8.33714999      1.34091509      4.06118900
O         8.33175442      1.66424495      8.33373231
H         7.34590164      1.66706074      8.34184204
H         8.34019647      1.34460156      7.39549877
O         8.33059694      1.67113471      11.66459202
H         7.34494459      1.66879009      11.67308351
H         8.34235047      1.34417784      10.73218355
O         8.33055572      1.66405814      14.99704834
H         7.34315152      1.66708486      15.00756737
H         8.34211925      1.34401676      14.05959719
O         8.33130083      1.66657113      18.33092826
H         7.34398396      1.66704290      18.33614953
H         8.34242928      1.34385449      17.39850130
O         8.33253881      5.00098746      1.66470541
H         7.34324288      4.99977626      1.67285842
H         8.34622055      4.67500747      0.73196991
O         8.32921856      4.99826214      4.99977850
H         7.34239485      5.00224427      5.00830447
H         8.33813067      4.68132661      4.06725768
O         8.33472900      4.99933069      8.33190998
H         7.34539273      5.00343951      8.33903797
H         8.34090362      4.67694767      7.39636673
O         8.32994282      5.00132051      11.66636692
H         7.34255204      5.00303946      11.67323873
H         8.33799313      4.67906515      10.73305082
O         8.33201990      4.99579643      15.00016547
H         7.33926892      5.00316960      15.00741723
H         8.33935133      4.67756923      14.06345281
O         8.32898738      4.99708628      18.33382765
H         7.34208563      5.00459357      18.34187329
H         8.34292035      4.67770614      17.39977284
O         8.33025069      8.33283663      1.66956499
H         7.34333947      8.33451767      1.67342356
H         8.33992412      8.01403709      0.73046717
O         8.33092191      8.32844594      4.99590206
H         7.34454524      8.33345820      5.00570629
H         8.34275004      8.00922314      4.06640756
O         8.32961136      8.33187597      8.33243150
H         7.34242858      8.33592125      8.33947260
H         8.34015062      8.01160549      7.39769034
O         8.33603578      8.33457013      11.66631374
H         7.34294895      8.33443682      11.67217779
H         8.34306942      8.01522720      10.73087641
O         8.33252102      8.33386819      14.99982628
H         7.34755613      8.33498334      15.00832357
H         8.34496653      8.00977061      14.06156950
O         8.33341125      8.33569811      18.32946915
H         7.34440757      8.33617964      18.34388099
H         8.33944782      8.01264660      17.39646192
O         8.33179088      11.66873805      1.66715463
H         7.34518090      11.67075018      1.67340638
H         8.33992836      11.34602639      0.73022692
O         8.33172106      11.66605299      5.00198792
H         7.34713124      11.66826409      5.00835369
H         8.33960937      11.34486676      4.06859097
O         8.33243890      11.66449608      8.33427601
H         7.34344067      11.67080030      8.34082444
H         8.34244103      11.34531820      7.39774853
O         8.33455736      11.66441498      11.66463655
H         7.34586380      11.67238008      11.67287077
H         8.34374801      11.34597044      10.73086455
O         8.33117161      11.66716821      14.99736707
H         7.34580209      11.66467524      15.00655348
H         8.34394215      11.34266411      14.06503520
O         8.33099201      11.66578621      18.33254474
H         7.34359369      11.66746101      18.33786665
H         8.34051524      11.34389765      17.39858483
O         8.33310018      14.99937745      1.66389190
H         7.34307266      15.00489713      1.67715534
H         8.34326593      14.67840880      0.73358296
O         8.33071928      14.99969684      4.99827891
H         7.34630546      15.00205819      5.00757468
H         8.34354098      14.67793586      4.06740946
O         8.32880309      15.00342315      8.33487911
H         7.34014944      15.00115734      8.33936332
H         8.34244109      14.67725050      7.39985486
O         8.32982303      14.99638940      11.66559226
H         7.34446859      15.00333311      11.67170138
H         8.34199021      14.67963889      10.72932232
O         8.33188923      14.99496694      15.00192280
H         7.34337414      15.00181832      15.00482729
H         8.34472730      14.67646000      14.05988094
O         8.33236114      15.00392853      18.33006958
H         7.34110216      15.00251659      18.33990110
H         8.34046182      14.67879949      17.39732909
O         8.32822072      18.33036091      1.66584394
H         7.34366268      18.33747671      1.67585194
H         8.34301982      18.00749360      0.73160989
O         8.33218385      18.33107274      4.99954743
H         7.34268438      18.33698339      5.00900556
H         8.34351869      18.00966693      4.06498733
O         8.33442473      18.33168024      8.33329096
H         7.34315045      18.33905684      8.34286936
H         8.33957969      18.01392974      7.39873548
O         8.33122600      18.33475368      11.66514119
H         7.34513947      18.33525064      11.67368437
H         8.34407192      18.01263699      10.73159533
O         8.33309219      18.33546644      14.99917845
H         7.34730871      18.33586185      15.00536819
H         8.34378627      18.01495156      14.06436703
O         8.33368861      18.33244089      18.33328918
H         7.34321249      18.33658664      18.33886450
H         8.33980628      18.01129686      17.39623454
O         11.66465098      1.66648175      1.66495125
H         10.67765867      1.66918705      1.67364776
H         11.67322055      1.34540046      0.73128140
O         11.66851545      1.66360733      5.00387116
H         10.67761490      1.67227859      5.00391613
H         11.66941029      1.34215296      4.06385406
O         11.67019027      1.66327363      8.33110749
H         10.67563462      1.66798715      8.34195595
H         11.67498944      1.34264236      7.40126672
O         11.66161166      1.66722563      11.66704406
H         10.67955497      1.66905743      11.67495644
H         11.67477804      1.34388496      10.73131536
O         11.66316096      1.66557264      14.99622681
H         10.67815643      1.66653417      15.00548381
H         11.67294089      1.34528545      14.06482050
O         11.66506642      1.66365199      18.33282354
H         10.67862314      1.66460987      18.33996210
H         11.67276194      1.34120175      17.39612533
O         11.66876873      4.99947173      1.66499199
H         10.68010986      5.00048659      1.67494307
H         11.67233929      4.67621660      0.72805535
O         11.66373675      4.99930263      4.99652812
H         10.67772180      5.00397518      5.00761614
H         11.67200524      4.68022742      4.06374833
O         11.66918873      5.00025671      8.33292295
H         10.67881257      5.00155406      8.33849869
H         11.67264972      4.67724542      7.39919241
O         11.66823454      4.99762783      11.66523285
H         10.67757122      5.00291262      11.67429516
H         11.67319654      4.67736230      10.73521990
O         11.66527759      4.99682330      14.99798946
H         10.67630571      5.00469764      15.00397339
H         11.67452662      4.67871742      14.06366360
O         11.66610004      4.99684100      18.32849468
H         10.67979010      5.00041476      18.33749562
H         11.67737192      4.68140313      17.39800997
O         11.66169912      8.33123512      1.66860316
H         10.68089977      8.33723717      1.67177481
H         11.67261754      8.00834155      0.73274848
O         11.66521954      8.33508659      4.99827169
H         10.67690003      8.33538958      5.00948594
H         11.67516992      8.00725891      4.06313235
O         11.66604156      8.33319773      8.33324134
H         10.67848832      8.33802314      8.34069895
H         11.67434332      8.00855926      7.39784287
O         11.66526622      8.33220769      11.66252433
H         10.67438311      8.33490571      11.67317978
H         11.67459237      8.01161464      10.73055160
O         11.66541782      8.33423539      15.00079532
H         10.67866193      8.33553190      15.00721962
H         11.67369097      8.01120059      14.06169083
O         11.66776739      8.32865804      18.33211583
H         10.67949404      8.33467417      18.33936953
H         11.67266702      8.01344160      17.39416053
O         11.66802279      11.66914588      1.66799034
H         10.67725154      11.66472643      1.67509662
H         11.67595161      11.34259592      0.72679636
O         11.66654028      11.66883155      4.99968788
H         10.67817706      11.66695904      5.00888642
H         11.67713443      11.34339016      4.06333411
O         11.66710302      11.66646838      8.33537047
H         10.67485229      11.67001155      8.33893951
H         11.67467296      11.34588456      7.39773040
O         11.66212265      11.66738811      11.66635467
H         10.67764397      11.66757590      11.67740029
H         11.67550233      11.34495114      10.73111712
O         11.66673686      11.66834970      14.99922119
H         10.67996802      11.66836016      15.01096370
H         11.67439358      11.34305039      14.06284764
O         11.66944294      11.66762794      18.33342386
H         10.67782555      11.66880248      18.34037419
H         11.67228602      11.34837508      17.39655290
O         11.66465331      15.00135798      1.66709697
H         10.67683168      15.00261004      1.67263229
H         11.67271463      14.67856654      0.72933549
O         11.66369726      14.99889457      4.99916017
H         10.67661949      15.00422047      5.01120293
H         11.67421759      14.68038612      4.06291050
O         11.66749538      14.99874708      8.33658683
H         10.67747778      15.00143927      8.34056869
H         11.67515301      14.67915191      7.39732182
O         11.66622126      14.99522608      11.66488684
H         10.67636649      15.00387804      11.67510719
H         11.67362570      14.67812908      10.73350034
O         11.66518243      14.99830791      14.99538933
H         10.67623064      15.00091311      15.00813432
H         11.67202312      14.67943078      14.06511499
O         11.66444179      14.99532164      18.33019338
H         10.67709058      15.00264526      18.34344277
H         11.67205352      14.67806760      17.39843224
O         11.66555828      18.33323761      1.66831933
H         10.67531969      18.33379465      1.67479458
H         11.67597258      18.01237645      0.73140170
O         11.66691505      18.33030418      4.99887088
H         10.67886295      18.33554501      5.00483719
H         11.67443570      18.01322889      4.06210494
O         11.66751329      18.33384737      8.33256317
H         10.67835924      18.33242167      8.34012291
H         11.67325875      18.01448716      7.39703895
O         11.66776920      18.33256752      11.66635242
H         10.67510004      18.33713806      11.66852761
H         11.67586590      18.00931831      10.73139625
O         11.66612171      18.33316694      15.00233233
H         10.67809109      18.33646936      15.01065261
H         11.67278123      18.01315897      14.06918524
O         11.66777290      18.33161899      18.33307480
H         10.67455308      18.33568959      18.34396898
H         11.67438844      18.01202157      17.39953794
O         14.99823886      1.66619495      1.66563850
H         14.00544493      1.66687331      1.67302748
H         15.00845009      1.34326813      0.73065722
O         15.00124512      1.66877845      5.00224574
H         14.01266196      1.66845192      5.00766359
H         15.00250747      1.34370323      4.06643682
O         14.99969564      1.66490039      8.33247995
H         14.01455129      1.67015000      8.33922455
H         15.00589311      1.34371405      7.39578832
O         14.99711039      1.66642417      11.66600288
H         14.01157052      1.66619937      11.67746376
H         15.00409608      1.34239141      10.72973734
O         14.99827615      1.66536028      15.00124046
H         14.01223476      1.67028795      15.00766592
H         15.00788272      1.34595441      14.06366213
O         14.99848349      1.66427435      18.33292659
H         14.01065251      1.66788614      18.34087466
H         15.00719833      1.34218903      17.39707727